version 2
run scenario1-5-20211222-17:37:07-12112
attr configname scenario1
attr datetime 20211222-17:37:07
attr experiment scenario1
attr inifile omnetpp.ini
attr iterationvars ""
attr iterationvarsf ""
attr measurement ""
attr network Network
attr processid 12112
attr repetition 5
attr replication #5
attr resultdir results
attr runnumber 5
attr seedset 5
param **.server.p1 0.2
param **.server.p2 0.385
param **.clients.num_clients 60
param **.processor.service_rate 1000
param **.disk.service_rate 300
param **.webServer.serv_rate_w 80
param **.clients.timeWindow 5s

vector 0 Network.clients pkt_counter:vector ETV
attr source pkt_counter_s
vector 1 Network.server.processor processor_backlog:vector ETV
attr source processor_backlog_s
vector 2 Network.server.disk disk_backlog:vector ETV
attr source disk_backlog_s
vector 3 Network.webServer wserver_backlog:vector ETV
attr source wserver_backlog_s
vector 4 Network.clients interarrival_time:vector ETV
attr source interarrival_time_s
vector 5 Network.clients response_time:vector ETV
attr source response_time_s
4	366933	500.01723916267	0.048347794143
4	366984	500.141179848012	0.123940685342
4	366995	500.14611699108	0.004937143068
4	367018	500.214264287838	0.068147296758
4	367029	500.237280015743	0.023015727905
4	367044	500.295724525449	0.058444509706
4	367047	500.296144581332	0.000420055883
4	367062	500.312561628864	0.016417047532
4	367065	500.316791714953	0.004230086089
4	367088	500.454431780384	0.137640065431
4	367095	500.4577965866	0.003364806216
4	367122	500.483949162892	0.026152576292
4	367129	500.48785934428	0.003910181388
4	367132	500.489502008433	0.001642664153
4	367137	500.491504208015	0.002002199582
4	367140	500.49253094165	0.001026733635
4	367151	500.502150580346	0.009619638696
4	367160	500.505653813786	0.00350323344
4	367175	500.537293775748	0.031639961962
4	367198	500.617663287282	0.080369511534
4	367223	500.679113633574	0.061450346292
4	367284	500.786886855845	0.107773222271
4	367299	500.801018078989	0.014131223144
4	367316	500.810754736883	0.009736657894
4	367333	500.849707417405	0.038952680522
4	367346	500.881839858943	0.032132441538
4	367383	500.905077747285	0.023237888342
4	367418	500.919922686522	0.014844939237
4	367429	500.923491681693	0.003568995171
4	367444	500.930602266509	0.007110584816
4	367459	500.943173128684	0.012570862175
4	367478	500.963027012909	0.019853884225
4	367501	500.982116412736	0.019089399827
4	367546	501.026991343434	0.044874930698
4	367561	501.037549311699	0.010557968265
4	367564	501.037659603853	0.000110292154
4	367567	501.038761376097	0.001101772244
4	367594	501.073682762022	0.034921385925
4	367601	501.107475648005	0.033792885983
4	367676	501.181639376788	0.074163728783
4	367699	501.205027585986	0.023388209198
4	367726	501.225344760588	0.020317174602
4	367731	501.228664123317	0.003319362729
4	367734	501.228793810316	0.000129686999
4	367759	501.303832900503	0.075039090187
4	367774	501.313686751627	0.009853851124
4	367797	501.335064728218	0.021377976591
4	367808	501.341050141763	0.005985413545
4	367847	501.365667575487	0.024617433724
4	367894	501.454246155452	0.088578579965
4	367937	501.571782296988	0.117536141536
4	367944	501.577668260695	0.005885963707
4	367993	501.63302777715	0.055359516455
4	367998	501.636098206988	0.003070429838
4	368013	501.665187539003	0.029089332015
4	368066	501.714853295568	0.049665756565
4	368081	501.719488863808	0.00463556824
4	368202	501.861363496776	0.141874632968
4	368225	501.872629818823	0.011266322047
4	368240	501.893661984878	0.021032166055
4	368243	501.894204400886	0.000542416008
4	368246	501.894958562908	0.000754162022
4	368291	501.97664065921	0.081682096302
4	368331	502.031150565557	0.054509906347
4	368354	502.040097252979	0.008946687422
4	368401	502.137840070278	0.097742817299
4	368408	502.148020507272	0.010180436994
4	368411	502.14825821676	0.000237709488
4	368414	502.149230933511	0.000972716751
4	368437	502.161483309709	0.012252376198
4	368460	502.178268477159	0.01678516745
4	368463	502.178482975154	0.000214497995
4	368478	502.189378441814	0.01089546666
4	368505	502.292475557036	0.103097115222
4	368516	502.298505375241	0.006029818205
4	368531	502.314104510214	0.015599134973
4	368550	502.353767973759	0.039663463545
4	368553	502.353810150742	4.2176983e-05
4	368558	502.354014967493	0.000204816751
4	368567	502.358558026964	0.004543059471
4	368578	502.39207624629	0.033518219326
4	368601	502.420960140007	0.028883893717
4	368614	502.426504287373	0.005544147366
4	368623	502.445132889494	0.018628602121
4	368654	502.511037211097	0.065904321603
4	368673	502.539606540395	0.028569329298
4	368694	502.610547464588	0.070940924193
4	368697	502.611156803544	0.000609338956
4	368718	502.649090328682	0.037933525138
4	368761	502.720433676755	0.071343348073
4	368800	502.774668857523	0.054235180768
4	368815	502.796287870915	0.021619013392
4	368820	502.798307176812	0.002019305897
4	368823	502.798508425628	0.000201248816
4	368828	502.799654905152	0.001146479524
4	368875	502.831093879776	0.031438974624
4	368878	502.831513237013	0.000419357237
4	368949	502.909000636235	0.077487399222
4	368984	502.948267543995	0.03926690776
4	369032	503.014688788909	0.066421244914
4	369069	503.036219269492	0.021530480583
4	369076	503.044769799647	0.008550530155
4	369087	503.076853802753	0.032084003106
4	369110	503.125369535308	0.048515732555
4	369119	503.134690416904	0.009320881596
4	369132	503.142298116214	0.00760769931
4	369155	503.158210863467	0.015912747253
4	369162	503.170999849344	0.012788985877
4	369177	503.182437632249	0.011437782905
4	369188	503.205332204005	0.022894571756
4	369191	503.206944711607	0.001612507602
4	369194	503.20710785998	0.000163148373
4	369217	503.237966895434	0.030859035454
4	369244	503.251835879373	0.013868983939
4	369275	503.299356822158	0.047520942785
4	369278	503.303097948754	0.003741126596
4	369281	503.303408787961	0.000310839207
4	369300	503.330504568435	0.027095780474
4	369307	503.330700576455	0.00019600802
4	369310	503.331350807848	0.000650231393
4	369317	503.336565734784	0.005214926936
4	369324	503.343592620213	0.007026885429
4	369339	503.357691795194	0.014099174981
4	369370	503.378064981096	0.020373185902
4	369397	503.427367165012	0.049302183916
4	369408	503.431630822386	0.004263657374
4	369431	503.528236260781	0.096605438395
4	369438	503.529612175428	0.001375914647
4	369441	503.530023123004	0.000410947576
4	369450	503.544056342101	0.014033219097
4	369485	503.562799275253	0.018742933152
4	369510	503.597912807542	0.035113532289
4	369529	503.625938356231	0.028025548689
4	369532	503.6279078531	0.001969496869
4	369535	503.628030970889	0.000123117789
4	369542	503.628916471553	0.000885500664
4	369561	503.64104221096	0.012125739407
4	369566	503.642762556181	0.001720345221
4	369569	503.643446152894	0.000683596713
4	369592	503.654716790159	0.011270637265
4	369637	503.682013053255	0.027296263096
4	369640	503.682257914547	0.000244861292
4	369643	503.68315765414	0.000899739593
4	369706	503.784902946156	0.101745292016
4	369709	503.787103385276	0.00220043912
4	369712	503.787405388097	0.000302002821
4	369721	503.789401389451	0.001996001354
4	369738	503.833463683724	0.044062294273
4	369773	503.945397935335	0.111934251611
4	369784	503.950952811617	0.005554876282
4	369815	503.979063563372	0.028110751755
4	369829	504.014460169561	0.035396606189
4	369832	504.01477630928	0.000316139719
4	369915	504.128785900066	0.114009590786
4	369934	504.158211707052	0.029425806986
4	369941	504.162397293366	0.004185586314
4	369992	504.23604196433	0.073644670964
4	370015	504.289826372603	0.053784408273
4	370022	504.293413561918	0.003587189315
4	370033	504.308121427565	0.014707865647
4	370096	504.369307554072	0.061186126507
4	370115	504.376257408876	0.006949854804
4	370138	504.42860276433	0.052345355454
4	370145	504.429541969383	0.000939205053
4	370148	504.429572128135	3.0158752e-05
4	370159	504.442077993612	0.012505865477
4	370166	504.443272227659	0.001194234047
4	370177	504.45503640551	0.011764177851
4	370180	504.456008856711	0.000972451201
4	370183	504.456445372201	0.00043651549
4	370190	504.46736235404	0.010916981839
4	370249	504.664075522463	0.196713168423
4	370276	504.691956822371	0.027881299908
4	370279	504.692984686318	0.001027863947
4	370286	504.695494060192	0.002509373874
4	370321	504.714168064316	0.018674004124
4	370328	504.722500427746	0.00833236343
4	370339	504.763169877611	0.040669449865
4	370348	504.769464504225	0.006294626614
4	370355	504.770955097295	0.00149059307
4	370372	504.779521753161	0.008566655866
4	370379	504.788356456148	0.008834702987
4	370396	504.802398021486	0.014041565338
4	370411	504.806345810016	0.00394778853
4	370422	504.810309304405	0.003963494389
4	370425	504.810974154474	0.000664850069
4	370434	504.81247407543	0.001499920956
4	370459	504.83508420873	0.0226101333
4	370464	504.835468359905	0.000384151175
4	370495	504.859092657642	0.023624297737
4	370534	504.910842595878	0.051749938236
4	370549	504.937329418068	0.02648682219
4	370560	504.944848798174	0.007519380106
4	370579	504.972217641014	0.02736884284
4	370584	504.973786529882	0.001568888868
4	370597	505.017190853761	0.043404323879
4	370612	505.041159844716	0.023968990955
4	370631	505.093529320593	0.052369475877
4	370642	505.128369037873	0.03483971728
4	370653	505.134667131969	0.006298094096
4	370668	505.166547951835	0.031880819866
4	370675	505.16974930661	0.003201354775
4	370690	505.182930805146	0.013181498536
4	370693	505.183051550111	0.000120744965
4	370708	505.200779270456	0.017727720345
4	370719	505.201730474257	0.000951203801
4	370722	505.202287889073	0.000557414816
4	370733	505.203980728417	0.001692839344
4	370744	505.206806741582	0.002826013165
4	370751	505.209573946038	0.002767204456
4	370762	505.215572967522	0.005999021484
4	370781	505.223204417281	0.007631449759
4	370786	505.224903544984	0.001699127703
4	370789	505.226599278714	0.00169573373
4	370806	505.246492749159	0.019893470445
4	370813	505.250140096062	0.003647346903
4	370824	505.269856913664	0.019716817602
4	370831	505.283926764168	0.014069850504
4	370850	505.369944363486	0.086017599318
4	370903	505.397198314329	0.027253950843
4	370914	505.402971598365	0.005773284036
4	370939	505.415644214677	0.012672616312
4	370948	505.421864236829	0.006220022152
4	370993	505.54128847158	0.119424234751
4	370996	505.54329442655	0.00200595497
4	371023	505.572969835824	0.029675409274
4	371048	505.601330442471	0.028360606647
4	371051	505.603345209917	0.002014767446
4	371060	505.614384792959	0.011039583042
4	371087	505.70538910915	0.091004316191
4	371098	505.715325649382	0.009936540232
4	371145	505.830191863968	0.114866214586
4	371182	505.919073657323	0.088881793355
4	371185	505.921190706759	0.002117049436
4	371194	505.925906701808	0.004715995049
4	371225	505.947925760034	0.022019058226
4	371240	505.960115461853	0.012189701819
4	371271	505.999771714205	0.039656252352
4	371293	506.013031105433	0.013259391228
4	371316	506.028890351002	0.015859245569
4	371375	506.158891426874	0.130001075872
4	371412	506.234785675876	0.075894249002
4	371417	506.23504374978	0.000258073904
4	371428	506.251088280143	0.016044530363
4	371439	506.258750875906	0.007662595763
4	371450	506.271436922287	0.012686046381
4	371465	506.282774943065	0.011338020778
4	371476	506.287743194407	0.004968251342
4	371491	506.292699620379	0.004956425972
4	371502	506.309394443604	0.016694823225
4	371529	506.378804294146	0.069409850542
4	371564	506.452848782183	0.074044488037
4	371601	506.527203107198	0.074354325015
4	371610	506.533660985897	0.006457878699
4	371617	506.583568226436	0.049907240539
4	371620	506.584848163002	0.001279936566
4	371659	506.6158952385	0.031047075498
4	371674	506.643085822891	0.027190584391
4	371685	506.663298535196	0.020212712305
4	371724	506.706534102825	0.043235567629
4	371731	506.710434650581	0.003900547756
4	371752	506.783742576929	0.073307926348
4	371757	506.784266927199	0.00052435027
4	371784	506.811262861574	0.026995934375
4	371819	506.85804797205	0.046785110476
4	371830	506.862644206652	0.004596234602
4	371839	506.866703234803	0.004059028151
4	371846	506.868789545439	0.002086310636
4	371849	506.869780345361	0.000990799922
4	371854	506.869912841651	0.00013249629
4	371857	506.870308953484	0.000396111833
4	371900	506.910348558662	0.040039605178
4	371903	506.910577875791	0.000229317129
4	371910	506.935369087134	0.024791211343
4	372044	507.086057786408	0.150688699274
4	372071	507.164767813966	0.078710027558
4	372078	507.179221287035	0.014453473069
4	372097	507.243313790673	0.064092503638
4	372106	507.249815656894	0.006501866221
4	372115	507.252388234234	0.00257257734
4	372118	507.25250974883	0.000121514596
4	372137	507.269005915272	0.016496166442
4	372184	507.303652190341	0.034646275069
4	372227	507.358508867656	0.054856677315
4	372238	507.376845831822	0.018336964166
4	372281	507.432791829577	0.055945997755
4	372284	507.433317846301	0.000526016724
4	372291	507.437517017121	0.00419917082
4	372306	507.452160588591	0.01464357147
4	372325	507.484528445623	0.032367857032
4	372348	507.525362725184	0.040834279561
4	372351	507.525929000614	0.00056627543
4	372370	507.56703930641	0.041110305796
4	372405	507.615411794253	0.048372487843
4	372416	507.632567792736	0.017155998483
4	372423	507.640665766073	0.008097973337
4	372454	507.657492849747	0.016827083674
4	372467	507.661858074581	0.004365224834
4	372470	507.662295827392	0.000437752811
4	372473	507.662322167133	2.6339741e-05
4	372478	507.66268050952	0.000358342387
4	372481	507.662970731384	0.000290221864
4	372492	507.666889270052	0.003918538668
4	372515	507.68034221625	0.013452946198
4	372570	507.734345193322	0.054002977072
4	372621	507.877514702045	0.143169508723
4	372640	507.890433784989	0.012919082944
4	372649	507.890919502367	0.000485717378
4	372652	507.895900191839	0.004980689472
4	372661	507.898395791023	0.002495599184
4	372696	507.920934352745	0.022538561722
4	372730	508.023044000781	0.102109648036
4	372737	508.067689922931	0.04464592215
4	372744	508.069008414754	0.001318491823
4	372751	508.077564921296	0.008556506542
4	372794	508.164741135945	0.087176214649
4	372805	508.167572367588	0.002831231643
4	372814	508.170745745832	0.003173378244
4	372817	508.171226471827	0.000480725995
4	372820	508.171769225193	0.000542753366
4	372825	508.172009805092	0.000240579899
4	372828	508.172855054632	0.00084524954
4	372863	508.202432576767	0.029577522135
4	372886	508.22651393261	0.024081355843
4	372893	508.235377943106	0.008864010496
4	372908	508.244920120183	0.009542177077
4	372951	508.284926363559	0.040006243376
4	372954	508.287228853896	0.002302490337
4	372969	508.375225203231	0.087996349335
4	372992	508.437859353418	0.062634150187
4	373003	508.446479319896	0.008619966478
4	373014	508.463297232957	0.016817913061
4	373037	508.524196347182	0.060899114225
4	373056	508.568239122612	0.04404277543
4	373063	508.573531452454	0.005292329842
4	373074	508.582212764053	0.008681311599
4	373117	508.600821744669	0.018608980616
4	373128	508.618706360092	0.017884615423
4	373139	508.639398807587	0.020692447495
4	373142	508.639626672618	0.000227865031
4	373147	508.63967530791	4.8635292e-05
4	373176	508.728463493513	0.088788185603
4	373187	508.739837805937	0.011374312424
4	373202	508.751323541353	0.011485735416
4	373225	508.780982725988	0.029659184635
4	373272	508.883027705689	0.102044979701
4	373285	508.896823582054	0.013795876365
4	373290	508.898227087063	0.001403505009
4	373293	508.899864932156	0.001637845093
4	373296	508.900704954548	0.000840022392
4	373305	508.904885646306	0.004180691758
4	373342	508.927425648444	0.022540002138
4	373373	508.966010899382	0.038585250938
4	373396	508.995395844415	0.029384945033
4	373450	509.066816638107	0.071420793692
4	373503	509.147915447657	0.08109880955
4	373516	509.153735793932	0.005820346275
4	373531	509.183976546478	0.030240752546
4	373566	509.22259699749	0.038620451012
4	373573	509.226124620872	0.003527623382
4	373590	509.235829308302	0.00970468743
4	373619	509.276026153328	0.040196845026
4	373674	509.390094441069	0.114068287741
4	373705	509.41133544868	0.021241007611
4	373718	509.418792757363	0.007457308683
4	373721	509.419018726213	0.00022596885
4	373730	509.42078324428	0.001764518067
4	373761	509.469362898893	0.048579654613
4	373776	509.477239647324	0.007876748431
4	373803	509.503615179445	0.026375532121
4	373806	509.503745644307	0.000130464862
4	373865	509.548962213411	0.045216569104
4	373868	509.549926222267	0.000964008856
4	373887	509.56058693616	0.010660713893
4	373906	509.598975510967	0.038388574807
4	373913	509.602374703798	0.003399192831
4	373924	509.608550846371	0.006176142573
4	374003	509.868574459057	0.260023612686
4	374008	509.869600414673	0.001025955616
4	374017	509.876866479431	0.007266064758
4	374024	509.877332712756	0.000466233325
4	374047	509.883972481305	0.006639768549
4	374050	509.88409195053	0.000119469225
4	374057	509.887886826055	0.003794875525
4	374084	509.945406759837	0.057519933782
4	374087	509.945708134326	0.000301374489
4	374150	510.104341580426	0.1586334461
4	374169	510.114963770733	0.010622190307
4	374196	510.166946143425	0.051982372692
4	374211	510.197410385545	0.03046424212
4	374214	510.197532293429	0.000121907884
4	374279	510.327574399965	0.130042106536
4	374282	510.328276950688	0.000702550723
4	374285	510.329906479806	0.001629529118
4	374326	510.35603004237	0.026123562564
4	374349	510.385372938538	0.029342896168
4	374388	510.457192442085	0.071819503547
4	374423	510.476189001063	0.018996558978
4	374438	510.508421845472	0.032232844409
4	374445	510.5410620992	0.032640253728
4	374472	510.651168618293	0.110106519093
4	374491	510.667677819613	0.01650920132
4	374506	510.684108394472	0.016430574859
4	374509	510.684564524503	0.000456130031
4	374540	510.703175819412	0.018611294909
4	374547	510.724761150072	0.02158533066
4	374550	510.725640703957	0.000879553885
4	374553	510.726711350445	0.001070646488
4	374562	510.744420433412	0.017709082967
4	374579	510.758481074221	0.014060640809
4	374618	510.883989818285	0.125508744064
4	374641	510.897351045097	0.013361226812
4	374664	510.931717399261	0.034366354164
4	374687	510.971750199704	0.040032800443
4	374704	510.975842079861	0.004091880157
4	374709	510.977771177773	0.001929097912
4	374724	510.990329113243	0.01255793547
4	374753	511.025203489138	0.034874375895
4	374772	511.077011014411	0.051807525273
4	374823	511.206725837432	0.129714823021
4	374826	511.20826183959	0.001536002158
4	374877	511.280565770372	0.072303930782
4	374888	511.285564753103	0.004998982731
4	374915	511.32265838218	0.037093629077
4	374942	511.354077404287	0.031419022107
4	374949	511.356530137117	0.00245273283
4	374972	511.437506063501	0.080975926384
4	374991	511.461652344773	0.024146281272
4	375038	511.551700750785	0.090048406012
4	375065	511.575468311911	0.023767561126
4	375068	511.575569493848	0.000101181937
4	375075	511.601383598789	0.025814104941
4	375078	511.602935045791	0.001551447002
4	375085	511.604838580563	0.001903534772
4	375096	511.630931401004	0.026092820441
4	375105	511.636058743278	0.005127342274
4	375108	511.637206674873	0.001147931595
4	375149	511.705075081609	0.067868406736
4	375156	511.705726235958	0.000651154349
4	375191	511.748884296325	0.043158060367
4	375200	511.752224376556	0.003340080231
4	375203	511.752718218801	0.000493842245
4	375220	511.760454493476	0.007736274675
4	375235	511.769348947136	0.00889445366
4	375246	511.800826458904	0.031477511768
4	375249	511.804143679249	0.003317220345
4	375252	511.806917114209	0.00277343496
4	375291	511.90006217568	0.093145061471
4	375298	511.906049435371	0.005987259691
4	375309	511.91212241446	0.006072979089
4	375312	511.91240942265	0.00028700819
4	375327	511.919942981061	0.007533558411
4	375358	511.938132477657	0.018189496596
4	375361	511.939224348833	0.001091871176
4	375376	511.953238412671	0.014014063838
4	375387	511.957502723737	0.004264311066
4	375398	511.978231367373	0.020728643636
4	375407	511.985210261959	0.006978894586
4	375416	511.988185234784	0.002974972825
4	375458	512.016236286203	0.028051051419
4	375475	512.02546964578	0.009233359577
4	375496	512.052615053391	0.027145407611
4	375503	512.059155944008	0.006540890617
4	375534	512.070671176805	0.011515232797
4	375545	512.118938832742	0.048267655937
4	375580	512.202145726744	0.083206894002
4	375583	512.202207424207	6.1697463e-05
4	375590	512.221436598727	0.01922917452
4	375605	512.23257940853	0.011142809803
4	375632	512.255377664822	0.022798256292
4	375639	512.260375629755	0.004997964933
4	375662	512.327338960338	0.066963330583
4	375699	512.367282494484	0.039943534146
4	375712	512.373741630076	0.006459135592
4	375739	512.415863067754	0.042121437678
4	375746	512.441852820519	0.025989752765
4	375757	512.450038595051	0.008185774532
4	375780	512.480742091057	0.030703496006
4	375823	512.554640805061	0.073898714004
4	375842	512.568543042544	0.013902237483
4	375845	512.568960941194	0.00041789865
4	375860	512.615579388613	0.046618447419
4	375891	512.642210062781	0.026630674168
4	375910	512.647098326174	0.004888263393
4	375921	512.651937451981	0.004839125807
4	375928	512.656458000987	0.004520549006
4	375959	512.720114493959	0.063656492972
4	375962	512.724621775629	0.00450728167
4	375969	512.728225718033	0.003603942404
4	375994	512.781153730459	0.052928012426
4	375997	512.781278903344	0.000125172885
4	376004	512.782920815128	0.001641911784
4	376041	512.830172986506	0.047252171378
4	376060	512.839920046838	0.009747060332
4	376067	512.843369159557	0.003449112719
4	376078	512.847802728356	0.004433568799
4	376113	512.861085022251	0.013282293895
4	376146	512.908542121632	0.047457099381
4	376155	512.914242698626	0.005700576994
4	376158	512.914729701162	0.000487002536
4	376171	512.932619871801	0.017890170639
4	376188	512.939024203702	0.006404331901
4	376238	513.005674001547	0.066649797845
4	376245	513.010302205101	0.004628203554
4	376252	513.031832047198	0.021529842097
4	376271	513.103397351346	0.071565304148
4	376286	513.123468637913	0.020071286567
4	376317	513.141434465032	0.017965827119
4	376332	513.195738432551	0.054303967519
4	376359	513.246110322527	0.050371889976
4	376368	513.267607612746	0.021497290219
4	376397	513.308301250031	0.040693637285
4	376442	513.348021338748	0.039720088717
4	376447	513.352953406474	0.004932067726
4	376502	513.48354499036	0.130591583886
4	376513	513.503304689893	0.019759699533
4	376524	513.556686193237	0.053381503344
4	376531	513.564703206925	0.008017013688
4	376566	513.637518038539	0.072814831614
4	376577	513.643597173316	0.006079134777
4	376592	513.671320425584	0.027723252268
4	376611	513.721687199196	0.050366773612
4	376614	513.722541936768	0.000854737572
4	376617	513.722674312277	0.000132375509
4	376640	513.742696417218	0.020022104941
4	376647	513.753256166262	0.010559749044
4	376656	513.757910220368	0.004654054106
4	376659	513.759121367379	0.001211147011
4	376676	513.766772786077	0.007651418698
4	376679	513.768185064855	0.001412278778
4	376702	513.782335118828	0.014150053973
4	376721	513.809639981127	0.027304862299
4	376734	513.822552808022	0.012912826895
4	376757	513.842112326712	0.01955951869
4	376760	513.842215571846	0.000103245134
4	376781	513.866603641815	0.024388069969
4	376800	513.880207361056	0.013603719241
4	376815	513.911142228107	0.030934867051
4	376838	513.950952085774	0.039809857667
4	376855	513.961438616379	0.010486530605
4	376882	513.98021959878	0.018780982401
4	376889	513.981578318881	0.001358720101
4	376921	514.021100262265	0.039521943384
4	376942	514.030587639851	0.009487377586
4	376951	514.044358748527	0.013771108676
4	376954	514.046014096085	0.001655347558
4	376985	514.105192416422	0.059178320337
4	376988	514.106110965084	0.000918548662
4	376991	514.106324015896	0.000213050812
4	377004	514.122146870547	0.015822854651
4	377017	514.126486270104	0.004339399557
4	377024	514.132354119613	0.005867849509
4	377039	514.143020951446	0.010666831833
4	377064	514.159581808696	0.01656085725
4	377081	514.175701042066	0.01611923337
4	377096	514.2047681913	0.029067149234
4	377123	514.231983663752	0.027215472452
4	377130	514.234057816097	0.002074152345
4	377163	514.24446309882	0.010405282723
4	377182	514.263809928592	0.019346829772
4	377227	514.299240484461	0.035430555869
4	377274	514.367251026479	0.068010542018
4	377277	514.367946703107	0.000695676628
4	377280	514.368975219967	0.00102851686
4	377351	514.497892761012	0.128917541045
4	377370	514.512656046231	0.014763285219
4	377377	514.515970256365	0.003314210134
4	377428	514.574839698094	0.058869441729
4	377499	514.760852522415	0.186012824321
4	377510	514.79456651591	0.033713993495
4	377525	514.80014556553	0.00557904962
4	377560	514.84403785377	0.04389228824
4	377571	514.852715895844	0.008678042074
4	377574	514.852849574585	0.000133678741
4	377589	514.86173421847	0.008884643885
4	377624	514.905069040357	0.043334821887
4	377631	514.915868829889	0.010799789532
4	377638	514.92647733992	0.010608510031
4	377677	514.949146075362	0.022668735442
4	377680	514.951721477109	0.002575401747
4	377695	514.967309511358	0.015588034249
4	377702	514.967478567712	0.000169056354
4	377705	514.968380420472	0.00090185276
4	377724	514.982661331361	0.014280910889
4	377775	515.063112730204	0.080451398843
4	377786	515.080146497853	0.017033767649
4	377791	515.082049021271	0.001902523418
4	377796	515.083889021563	0.001840000292
4	377819	515.104694394508	0.020805372945
4	377878	515.233342331412	0.128647936904
4	377917	515.264831549874	0.031489218462
4	377920	515.26580012374	0.000968573866
4	377923	515.26589546179	9.533805e-05
4	377958	515.316776403759	0.050880941969
4	378017	515.413872564745	0.097096160986
4	378024	515.416521132917	0.002648568172
4	378047	515.504654714792	0.088133581875
4	378062	515.527723132797	0.023068418005
4	378077	515.54798219545	0.020259062653
4	378084	515.549281395873	0.001299200423
4	378087	515.549818413309	0.000537017436
4	378098	515.557618461985	0.007800048676
4	378105	515.560986588478	0.003368126493
4	378140	515.659352538826	0.098365950348
4	378171	515.743915512192	0.084562973366
4	378218	515.806139931592	0.0622244194
4	378221	515.806296819092	0.0001568875
4	378228	515.815005390531	0.008708571439
4	378231	515.815189258242	0.000183867711
4	378254	515.83167085225	0.016481594008
4	378301	515.937438874734	0.105768022484
4	378352	515.98128821594	0.043849341206
4	378355	515.981596124667	0.000307908727
4	378379	516.009447925428	0.027851800761
4	378392	516.011794268879	0.002346343451
4	378399	516.012900726148	0.001106457269
4	378412	516.017958792915	0.005058066767
4	378417	516.01961795482	0.001659161905
4	378432	516.025278087892	0.005660133072
4	378471	516.178037732015	0.152759644123
4	378486	516.18329996662	0.005262234605
4	378509	516.204131623936	0.020831657316
4	378518	516.215361153496	0.01122952956
4	378523	516.216251241988	0.000890088492
4	378526	516.216325327875	7.4085887e-05
4	378533	516.221025004391	0.004699676516
4	378572	516.351236806187	0.130211801796
4	378595	516.372912119503	0.021675313316
4	378602	516.375485498058	0.002573378555
4	378637	516.42276754792	0.047282049862
4	378640	516.424291422942	0.001523875022
4	378655	516.458050234294	0.033758811352
4	378666	516.471293763507	0.013243529213
4	378705	516.54227923735	0.070985473843
4	378730	516.56092878624	0.01864954889
4	378741	516.564507743168	0.003578956928
4	378744	516.567160646092	0.002652902924
4	378771	516.590940980503	0.023780334411
4	378788	516.611600068329	0.020659087826
4	378799	516.643549614603	0.031949546274
4	378808	516.660350170577	0.016800555974
4	378811	516.661408858123	0.001058687546
4	378824	516.740531958435	0.079123100312
4	378843	516.756255217383	0.015723258948
4	378864	516.778641932198	0.022386714815
4	378871	516.781108587351	0.002466655153
4	378884	516.794405725449	0.013297138098
4	378911	516.818354430443	0.023948704994
4	378942	516.850948809883	0.03259437944
4	378949	516.85700712955	0.006058319667
4	378988	516.992401303359	0.135394173809
4	379046	517.064943397951	0.072542094592
4	379061	517.108267604265	0.043324206314
4	379064	517.108658989208	0.000391384943
4	379083	517.122603003347	0.013944014139
4	379114	517.157864397067	0.03526139372
4	379137	517.200187599409	0.042323202342
4	379148	517.206465700135	0.006278100726
4	379159	517.212582391096	0.006116690961
4	379166	517.213114620616	0.00053222952
4	379173	517.213724181718	0.000609561102
4	379176	517.214705630259	0.000981448541
4	379179	517.214733215657	2.7585398e-05
4	379210	517.227240991039	0.012507775382
4	379219	517.231036844666	0.003795853627
4	379236	517.23768629605	0.006649451384
4	379249	517.24974975589	0.01206345984
4	379254	517.251580531383	0.001830775493
4	379257	517.252256062309	0.000675530926
4	379264	517.254692664029	0.00243660172
4	379271	517.256272106002	0.001579441973
4	379290	517.270354969572	0.01408286357
4	379299	517.276489576356	0.006134606784
4	379302	517.27724203331	0.000752456954
4	379319	517.317910980874	0.040668947564
4	379330	517.357322281362	0.039411300488
4	379349	517.37100968634	0.013687404978
4	379360	517.375827067132	0.004817380792
4	379371	517.394220698041	0.018393630909
4	379378	517.398717167461	0.00449646942
4	379385	517.403214756641	0.00449758918
4	379412	517.427406794103	0.024192037462
4	379417	517.429666550703	0.0022597566
4	379420	517.429696039667	2.9488964e-05
4	379423	517.430380397828	0.000684358161
4	379446	517.44250237831	0.012121980482
4	379449	517.444205481081	0.001703102771
4	379452	517.445067202772	0.000861721691
4	379477	517.465022808537	0.019955605765
4	379480	517.467138102697	0.00211529416
4	379487	517.472638070648	0.005499967951
4	379490	517.474344191137	0.001706120489
4	379497	517.489129594291	0.014785403154
4	379526	517.517223431861	0.02809383757
4	379535	517.520127723235	0.002904291374
4	379670	517.781057628251	0.260929905016
4	379677	517.788400847577	0.007343219326
4	379728	517.847129311223	0.058728463646
4	379743	517.868498583262	0.021369272039
4	379750	517.87658029912	0.008081715858
4	379757	517.877607750923	0.001027451803
4	379760	517.87918007782	0.001572326897
4	379813	517.914440222793	0.035260144973
4	379826	517.918146122568	0.003705899775
4	379869	517.964854205321	0.046708082753
4	379888	517.981168071214	0.016313865893
4	379918	518.017262159702	0.036094088488
4	379921	518.017592232823	0.000330073121
4	379924	518.018567693772	0.000975460949
4	380001	518.114112139101	0.095544445329
4	380014	518.124648561187	0.010536422086
4	380025	518.126928797516	0.002280236329
4	380034	518.130304789867	0.003375992351
4	380067	518.147057249318	0.016752459451
4	380072	518.150252501818	0.0031952525
4	380081	518.152659643426	0.002407141608
4	380088	518.156336732268	0.003677088842
4	380115	518.188203028075	0.031866295807
4	380122	518.197152254943	0.008949226868
4	380157	518.231259797619	0.034107542676
4	380180	518.253988312962	0.022728515343
4	380211	518.352059021315	0.098070708353
4	380230	518.358439098962	0.006380077647
4	380237	518.361528235422	0.00308913646
4	380240	518.362929780963	0.001401545541
4	380243	518.363416001611	0.000486220648
4	380256	518.367553528644	0.004137527033
4	380273	518.394146695932	0.026593167288
4	380304	518.422449054436	0.028302358504
4	380307	518.42294870299	0.000499648554
4	380326	518.442516834721	0.019568131731
4	380353	518.476271071679	0.033754236958
4	380380	518.525343682603	0.049072610924
4	380411	518.551307206129	0.025963523526
4	380414	518.55321516047	0.001907954341
4	380417	518.55341044122	0.00019528075
4	380448	518.578706136699	0.025295695479
4	380455	518.581903713759	0.00319757706
4	380482	518.652101158682	0.070197444923
4	380505	518.671441729706	0.019340571024
4	380560	518.76825999415	0.096818264444
4	380563	518.769357538122	0.001097543972
4	380574	518.792725676658	0.023368138536
4	380593	518.818307616537	0.025581939879
4	380612	518.851670990576	0.033363374039
4	380615	518.854447148203	0.002776157627
4	380618	518.855063714373	0.00061656617
4	380641	518.935244675792	0.080180961419
4	380684	518.992031646114	0.056786970322
4	380702	519.000087579445	0.008055933331
4	380727	519.016989652493	0.016902073048
4	380740	519.052262076743	0.03527242425
4	380747	519.054868683742	0.002606606999
4	380750	519.056551820837	0.001683137095
4	380761	519.063453330251	0.006901509414
4	380768	519.07126979035	0.007816460099
4	380797	519.087224026461	0.015954236111
4	380802	519.087886434797	0.000662408336
4	380821	519.109430459658	0.021544024861
4	380912	519.169797664521	0.060367204863
4	380947	519.25415351828	0.084355853759
4	380950	519.254212194988	5.8676708e-05
4	380973	519.264843345989	0.010631151001
4	381038	519.373828856124	0.108985510135
4	381041	519.374122286709	0.000293430585
4	381070	519.393369079015	0.019246792306
4	381089	519.411723206891	0.018354127876
4	381108	519.419494377796	0.007771170905
4	381119	519.436288941506	0.01679456371
4	381122	519.437012191664	0.000723250158
4	381167	519.489931613893	0.052919422229
4	381196	519.507312164561	0.017380550668
4	381227	519.531348798377	0.024036633816
4	381230	519.534063306956	0.002714508579
4	381241	519.540621774988	0.006558468032
4	381248	519.543701521259	0.003079746271
4	381251	519.543813353391	0.000111832132
4	381258	519.546441478478	0.002628125087
4	381261	519.546519567583	7.8089105e-05
4	381268	519.548449512503	0.00192994492
4	381341	519.64955341576	0.101103903257
4	381350	519.658013423725	0.008460007965
4	381353	519.660079736952	0.002066313227
4	381406	519.774439009534	0.114359272582
4	381413	519.778094889683	0.003655880149
4	381434	519.791259034201	0.013164144518
4	381441	519.79223597245	0.000976938249
4	381466	519.802439231612	0.010203259162
4	381481	519.808344367981	0.005905136369
4	381486	519.810610365214	0.002265997233
4	381497	519.819253190332	0.008642825118
4	381524	519.835216359075	0.015963168743
4	381527	519.837232933193	0.002016574118
4	381538	519.843243006517	0.006010073324
4	381585	519.909925150255	0.066682143738
4	381604	519.943882001329	0.033956851074
4	381607	519.943974527376	9.2526047e-05
4	381614	519.945326067304	0.001351539928
4	381633	519.990034594385	0.044708527081
4	381640	519.99457106022	0.004536465835
4	381671	520.082716422297	0.088145362077
4	381690	520.094214482852	0.011498060555
4	381717	520.144546774166	0.050332291314
4	381732	520.16098063052	0.016433856354
4	381767	520.265878096868	0.104897466348
4	381776	520.270792453922	0.004914357054
4	381779	520.275051001622	0.0042585477
4	381808	520.318428047011	0.043377045389
4	381857	520.49588089951	0.177452852499
4	381870	520.507482563387	0.011601663877
4	381873	520.50754080569	5.8242303e-05
4	381892	520.553707747119	0.046166941429
4	381901	520.555762095321	0.002054348202
4	381948	520.605774506887	0.050012411566
4	382055	520.730117768557	0.12434326167
4	382092	520.772314465682	0.042196697125
4	382103	520.803436292077	0.031121826395
4	382122	520.843755008448	0.040318716371
4	382135	520.847187832428	0.00343282398
4	382148	520.863338084916	0.016150252488
4	382171	520.909454935953	0.046116851037
4	382198	520.962598462059	0.053143526106
4	382219	520.989159233131	0.026560771072
4	382262	521.017172700368	0.028013467237
4	382277	521.024981272986	0.007808572618
4	382288	521.031903279422	0.006922006436
4	382339	521.063011482952	0.03110820353
4	382342	521.064293570838	0.001282087886
4	382345	521.065926002846	0.001632432008
4	382372	521.079855883752	0.013929880906
4	382401	521.092039219938	0.012183336186
4	382410	521.096177807949	0.004138588011
4	382421	521.100245254185	0.004067446236
4	382428	521.10355030786	0.003305053675
4	382435	521.10666004637	0.00310973851
4	382442	521.108645266827	0.001985220457
4	382449	521.112121323351	0.003476056524
4	382464	521.116588915327	0.004467591976
4	382473	521.119072586436	0.002483671109
4	382478	521.120753822821	0.001681236385
4	382483	521.121629352892	0.000875530071
4	382490	521.129185802971	0.007556450079
4	382499	521.131970094349	0.002784291378
4	382502	521.133051101001	0.001081006652
4	382517	521.139144481128	0.006093380127
4	382520	521.142436454209	0.003291973081
4	382525	521.145123063903	0.002686609694
4	382528	521.145662184892	0.000539120989
4	382531	521.14740368169	0.001741496798
4	382534	521.148120229617	0.000716547927
4	382559	521.1626476302	0.014527400583
4	382574	521.174842168436	0.012194538236
4	382599	521.235185986737	0.060343818301
4	382604	521.23541197331	0.000225986573
4	382619	521.242356547695	0.006944574385
4	382630	521.269949201943	0.027592654248
4	382637	521.296343586461	0.026394384518
4	382640	521.296565536648	0.000221950187
4	382693	521.340919661813	0.044354125165
4	382700	521.343165985952	0.002246324139
4	382727	521.360324625756	0.017158639804
4	382756	521.391030684867	0.030706059111
4	382787	521.412916990614	0.021886305747
4	382790	521.41423765626	0.001320665646
4	382797	521.417273294303	0.003035638043
4	382800	521.418589744581	0.001316450278
4	382815	521.424808957213	0.006219212632
4	382862	521.516039751645	0.091230794432
4	382887	521.562820809531	0.046781057886
4	382890	521.562918786635	9.7977104e-05
4	382911	521.599615598837	0.036696812202
4	382976	521.68009866203	0.080483063193
4	382979	521.680939276958	0.000840614928
4	382988	521.689956360531	0.009017083573
4	382999	521.695169538169	0.005213177638
4	383006	521.698298189939	0.00312865177
4	383037	521.737456244316	0.039158054377
4	383040	521.738085726455	0.000629482139
4	383043	521.738425247688	0.000339521233
4	383094	521.831439941053	0.093014693365
4	383101	521.83598211957	0.004542178517
4	383108	521.863140878493	0.027158758923
4	383131	521.895166148986	0.032025270493
4	383158	521.905390316694	0.010224167708
4	383169	521.911489144895	0.006098828201
4	383182	521.919778398914	0.008289254019
4	383185	521.920053933165	0.000275534251
4	383238	521.949850905558	0.029796972393
4	383245	521.952402541362	0.002551635804
4	383254	521.95721603672	0.004813495358
4	383295	521.978533017712	0.021316980992
4	383302	521.981919292402	0.00338627469
4	383350	522.01626476135	0.034345468948
4	383369	522.030569032857	0.014304271507
4	383396	522.047369686191	0.016800653334
4	383399	522.047395673966	2.5987775e-05
4	383404	522.049306910509	0.001911236543
4	383437	522.075175927992	0.025869017483
4	383448	522.077666270627	0.002490342635
4	383451	522.078886243349	0.001219972722
4	383460	522.083003259	0.004117015651
4	383471	522.097674525023	0.014671266023
4	383494	522.117628871249	0.019954346226
4	383505	522.129711962562	0.012083091313
4	383532	522.147201995654	0.017490033092
4	383559	522.182346241533	0.035144245879
4	383572	522.205442168602	0.023095927069
4	383593	522.226611130401	0.021168961799
4	383600	522.236808895197	0.010197764796
4	383607	522.237554437664	0.000745542467
4	383614	522.241945692413	0.004391254749
4	383625	522.254168326469	0.012222634056
4	383680	522.293962774494	0.039794448025
4	383683	522.295903338225	0.001940563731
4	383690	522.297911200956	0.002007862731
4	383701	522.304860777994	0.006949577038
4	383732	522.32871412374	0.023853345746
4	383757	522.353052706085	0.024338582345
4	383780	522.363060784245	0.01000807816
4	383799	522.401876952645	0.0388161684
4	383816	522.426625978918	0.024749026273
4	383875	522.494351223193	0.067725244275
4	383894	522.527711555775	0.033360332582
4	383921	522.549337235672	0.021625679897
4	383960	522.580401716466	0.031064480794
4	383983	522.611174822764	0.030773106298
4	384014	522.650009124058	0.038834301294
4	384027	522.659864609015	0.009855484957
4	384030	522.65993941001	7.4800995e-05
4	384039	522.66311880109	0.00317939108
4	384058	522.691762813125	0.028644012035
4	384099	522.877363757817	0.185600944692
4	384102	522.877854441995	0.000490684178
4	384123	522.893488072454	0.015633630459
4	384201	523.00332027631	0.109832203856
4	384204	523.005232121569	0.001911845259
4	384247	523.137321237595	0.132089116026
4	384254	523.139494800361	0.002173562766
4	384293	523.201464772668	0.061969972307
4	384304	523.243253875362	0.041789102694
4	384315	523.246369658602	0.00311578324
4	384336	523.259427198783	0.013057540181
4	384339	523.261060854276	0.001633655493
4	384356	523.313708239887	0.052647385611
4	384375	523.359850546094	0.046142306207
4	384386	523.36751688061	0.007666334516
4	384413	523.409466316451	0.041949435841
4	384464	523.465230284006	0.055763967555
4	384471	523.469307303486	0.00407701948
4	384478	523.475798873449	0.006491569963
4	384491	523.483498026082	0.007699152633
4	384508	523.500940071224	0.017442045142
4	384515	523.505657104109	0.004717032885
4	384518	523.506346004961	0.000688900852
4	384529	523.510433577403	0.004087572442
4	384562	523.547393622101	0.036960044698
4	384569	523.548204787475	0.000811165374
4	384582	523.562342808433	0.014138020958
4	384593	523.573399613081	0.011056804648
4	384608	523.581944228973	0.008544615892
4	384611	523.582282696651	0.000338467678
4	384614	523.582831780445	0.000549083794
4	384621	523.589601942425	0.00677016198
4	384632	523.591529171804	0.001927229379
4	384643	523.600745805199	0.009216633395
4	384658	523.609082745802	0.008336940603
4	384665	523.6235489858	0.014466239998
4	384684	523.650474653464	0.026925667664
4	384695	523.670796187984	0.02032153452
4	384702	523.673229323444	0.00243313546
4	384725	523.709482483262	0.036253159818
4	384728	523.709940873866	0.000458390604
4	384739	523.712641813849	0.002700939983
4	384742	523.712687173407	4.5359558e-05
4	384763	523.727555965118	0.014868791711
4	384776	523.733446047239	0.005890082121
4	384795	523.747586587449	0.01414054021
4	384806	523.767746199925	0.020159612476
4	384841	523.873972756018	0.106226556093
4	384848	523.878730788142	0.004758032124
4	384879	523.939154038884	0.060423250742
4	384888	523.943053383716	0.003899344832
4	384925	523.985001795108	0.041948411392
4	384939	524.000781263115	0.015779468007
4	384986	524.033712720417	0.032931457302
4	385021	524.130309612432	0.096596892015
4	385028	524.13559390884	0.005284296408
4	385035	524.185262705553	0.049668796713
4	385042	524.191788352099	0.006525646546
4	385053	524.20064104813	0.008852696031
4	385092	524.23623857386	0.03559752573
4	385095	524.238838783728	0.002600209868
4	385114	524.247586732501	0.008747948773
4	385123	524.253882469864	0.006295737363
4	385138	524.2757695232	0.021887053336
4	385143	524.277283346015	0.001513822815
4	385164	524.315319281543	0.038035935528
4	385181	524.322335358902	0.007016077359
4	385188	524.323314242601	0.000978883699
4	385193	524.324476330615	0.001162088014
4	385198	524.325322085747	0.000845755132
4	385215	524.331145668887	0.00582358314
4	385248	524.349770962136	0.018625293249
4	385263	524.355892481587	0.006121519451
4	385274	524.359358702413	0.003466220826
4	385313	524.387734948006	0.028376245593
4	385324	524.407813081756	0.02007813375
4	385335	524.413824128358	0.006011046602
4	385358	524.478676672518	0.06485254416
4	385373	524.515652213854	0.036975541336
4	385384	524.534101333031	0.018449119177
4	385395	524.536247809845	0.002146476814
4	385406	524.53992016107	0.003672351225
4	385417	524.549807401709	0.009887240639
4	385424	524.557920171073	0.008112769364
4	385435	524.568804754586	0.010884583513
4	385438	524.569332659329	0.000527904743
4	385445	524.571070437893	0.001737778564
4	385452	524.578908514494	0.007838076601
4	385467	524.639368277323	0.060459762829
4	385490	524.678815357613	0.03944708029
4	385509	524.684038482023	0.00522312441
4	385548	524.711895405381	0.027856923358
4	385575	524.770098380873	0.058202975492
4	385582	524.794575167087	0.024476786214
4	385601	524.803520521834	0.008945354747
4	385604	524.804844044045	0.001323522211
4	385619	524.814411405394	0.009567361349
4	385628	524.817206146292	0.002794740898
4	385641	524.824170875877	0.006964729585
4	385680	524.856318078449	0.032147202572
4	385691	524.93082090675	0.074502828301
4	385716	524.988756413501	0.057935506751
4	385765	525.04882867022	0.060072256719
4	385768	525.049989047697	0.001160377477
4	385791	525.105461172656	0.055472124959
4	385794	525.10643148656	0.000970313904
4	385805	525.1149828455	0.00855135894
4	385848	525.205895161946	0.090912316446
4	385851	525.206427441184	0.000532279238
4	385882	525.228222543305	0.021795102121
4	385905	525.241708156746	0.013485613441
4	385914	525.244582396535	0.002874239789
4	385923	525.286090964866	0.041508568331
4	385936	525.293941587706	0.00785062284
4	385973	525.357595362703	0.063653774997
4	385982	525.363963373321	0.006368010618
4	385989	525.366968940346	0.003005567025
4	386034	525.454397494406	0.08742855406
4	386041	525.456648396806	0.0022509024
4	386044	525.457504902209	0.000856505403
4	386047	525.458833885936	0.001328983727
4	386050	525.458867538992	3.3653056e-05
4	386071	525.470572152871	0.011704613879
4	386080	525.47517291871	0.004600765839
4	386111	525.501065330824	0.025892412114
4	386116	525.503551932194	0.00248660137
4	386135	525.515046165383	0.011494233189
4	386144	525.51748938665	0.002443221267
4	386147	525.519203961206	0.001714574556
4	386154	525.520876156832	0.001672195626
4	386197	525.582529959941	0.061653803109
4	386204	525.583988862948	0.001458903007
4	386243	525.61694337757	0.032954514622
4	386282	525.636654038714	0.019710661144
4	386333	525.804400589697	0.167746550983
4	386400	525.911518174569	0.107117584872
4	386423	525.933409001435	0.021890826866
4	386438	525.949450973507	0.016041972072
4	386457	525.968098840702	0.018647867195
4	386464	525.979852608675	0.011753767973
4	386471	525.984805276982	0.004952668307
4	386474	525.985529430438	0.000724153456
4	386485	525.994673831405	0.009144400967
4	386539	526.130776906667	0.136103075262
4	386600	526.190006208007	0.05922930134
4	386605	526.192303291026	0.002297083019
4	386616	526.202675337827	0.010372046801
4	386641	526.247013994888	0.044338657061
4	386648	526.252806124578	0.00579212969
4	386651	526.252873202764	6.7078186e-05
4	386660	526.258486677422	0.005613474658
4	386679	526.286142834695	0.027656157273
4	386718	526.385776150236	0.099633315541
4	386721	526.386199724299	0.000423574063
4	386738	526.396954252698	0.010754528399
4	386779	526.474388922727	0.077434670029
4	386784	526.475987049459	0.001598126732
4	386845	526.542869655541	0.066882606082
4	386996	526.785248128609	0.242378473068
4	387015	526.800636211437	0.015388082828
4	387022	526.802584782917	0.00194857148
4	387063	526.881373247784	0.078788464867
4	387068	526.882402225194	0.00102897741
4	387083	526.919308233781	0.036906008587
4	387090	526.921034107342	0.001725873561
4	387097	526.950157701261	0.029123593919
4	387136	526.997767705541	0.04761000428
4	387154	527.025439205618	0.027671500077
4	387165	527.0381926242	0.012753418582
4	387168	527.038847020426	0.000654396226
4	387173	527.041437369238	0.002590348812
4	387198	527.057841823868	0.01640445463
4	387205	527.062097230328	0.00425540646
4	387214	527.066169704906	0.004072474578
4	387243	527.07959201298	0.013422308074
4	387246	527.07973099251	0.00013897953
4	387251	527.080658910317	0.000927917807
4	387276	527.091528493259	0.010869582942
4	387279	527.092547029111	0.001018535852
4	387296	527.107136510938	0.014589481827
4	387301	527.107149648781	1.3137843e-05
4	387310	527.108252969818	0.001103321037
4	387323	527.115332777615	0.007079807797
4	387350	527.182125760207	0.066792982592
4	387369	527.210812094427	0.02868633422
4	387394	527.222322104757	0.01151001033
4	387397	527.224195598653	0.001873493896
4	387400	527.225619144965	0.001423546312
4	387421	527.231725046433	0.006105901468
4	387424	527.2337279703	0.002002923867
4	387455	527.277466072777	0.043738102477
4	387478	527.284313677505	0.006847604728
4	387509	527.303253249316	0.018939571811
4	387520	527.306618666919	0.003365417603
4	387523	527.307287054263	0.000668387344
4	387532	527.31142126886	0.004134214597
4	387537	527.312153448623	0.000732179763
4	387552	527.325242971254	0.013089522631
4	387559	527.329826540591	0.004583569337
4	387582	527.361731588647	0.031905048056
4	387597	527.389728775766	0.027997187119
4	387604	527.418251933723	0.028523157957
4	387619	527.427347403376	0.009095469653
4	387638	527.441439867706	0.01409246433
4	387677	527.500838285048	0.059398417342
4	387700	527.569072537082	0.068234252034
4	387727	527.588637533509	0.019564996427
4	387730	527.590258786271	0.001621252762
4	387753	527.654832606007	0.064573819736
4	387764	527.721107498399	0.066274892392
4	387775	527.738594606718	0.017487108319
4	387782	527.745993898755	0.007399292037
4	387829	527.795261483727	0.049267584972
4	387852	527.849411329655	0.054149845928
4	387879	527.88724029697	0.037828967315
4	387892	527.896227732017	0.008987435047
4	387923	527.936344982409	0.040117250392
4	387984	527.999964270288	0.063619287879
4	387998	528.018178295606	0.018214025318
4	388001	528.018556540101	0.000378244495
4	388008	528.025524598449	0.006968058348
4	388011	528.026930740258	0.001406141809
4	388018	528.035170897384	0.008240157126
4	388029	528.044044040752	0.008873143368
4	388032	528.045669713967	0.001625673215
4	388051	528.060751508396	0.015081794429
4	388086	528.102559425754	0.041807917358
4	388091	528.102770337436	0.000210911682
4	388110	528.116259190794	0.013488853358
4	388139	528.13552820061	0.019269009816
4	388186	528.200515683939	0.064987483329
4	388213	528.213740289002	0.013224605063
4	388224	528.24422010966	0.030479820658
4	388243	528.279823978358	0.035603868698
4	388246	528.280637941277	0.000813962919
4	388271	528.354770909535	0.074132968258
4	388288	528.36140275891	0.006631849375
4	388375	528.545300016497	0.183897257587
4	388406	528.568223068778	0.022923052281
4	388415	528.571338132386	0.003115063608
4	388436	528.62388073847	0.052542606084
4	388455	528.627690931348	0.003810192878
4	388470	528.675274655086	0.047583723738
4	388501	528.707758167483	0.032483512397
4	388548	528.760039481507	0.052281314024
4	388567	528.865925312743	0.105885831236
4	388582	528.88008028116	0.014154968417
4	388601	528.906357571795	0.026277290635
4	388640	528.958216915861	0.051859344066
4	388690	529.05307940009	0.094862484229
4	388693	529.055400816015	0.002321415925
4	388696	529.056369434377	0.000968618362
4	388705	529.058098519032	0.001729084655
4	388708	529.058475535066	0.000377016034
4	388729	529.071306988236	0.01283145317
4	388732	529.074847190517	0.003540202281
4	388771	529.11930261168	0.044455421163
4	388790	529.138094126046	0.018791514366
4	388897	529.295021309308	0.156927183262
4	388900	529.29566176609	0.000640456782
4	388905	529.297244650242	0.001582884152
4	388946	529.330762450485	0.033517800243
4	388977	529.394066023163	0.063303572678
4	388982	529.394846850696	0.000780827533
4	388995	529.397930558299	0.003083707603
4	389034	529.438984327304	0.041053769005
4	389037	529.439979128003	0.000994800699
4	389046	529.44736987951	0.007390751507
4	389063	529.496012250728	0.048642371218
4	389070	529.514271855947	0.018259605219
4	389105	529.587041466798	0.072769610851
4	389108	529.587805126193	0.000763659395
4	389127	529.595006596132	0.007201469939
4	389134	529.600344663697	0.005338067565
4	389157	529.611319191618	0.010974527921
4	389160	529.61141125231	9.2060692e-05
4	389171	529.620407339607	0.008996087297
4	389182	529.625782926272	0.005375586665
4	389201	529.666942858092	0.04115993182
4	389220	529.679940679557	0.012997821465
4	389223	529.681430177839	0.001489498282
4	389238	529.713753207792	0.032323029953
4	389297	529.797084889229	0.083331681437
4	389300	529.797600090252	0.000515201023
4	389319	529.842054480648	0.044454390396
4	389322	529.842302216474	0.000247735826
4	389341	529.866965519588	0.024663303114
4	389364	529.874870280724	0.007904761136
4	389383	529.899317811818	0.024447531094
4	389418	529.954908595231	0.055590783413
4	389421	529.956371472449	0.001462877218
4	389442	529.993929482646	0.037558010197
4	389459	530.00818607421	0.014256591564
4	389474	530.031239756469	0.023053682259
4	389497	530.051671511752	0.020431755283
4	389516	530.073446509146	0.021774997394
4	389535	530.093576325677	0.020129816531
4	389550	530.107869483806	0.014293158129
4	389565	530.143727094202	0.035857610396
4	389588	530.229044789529	0.085317695327
4	389597	530.23044612933	0.001401339801
4	389600	530.231481103311	0.001034973981
4	389613	530.235884765028	0.004403661717
4	389616	530.23684161447	0.000956849442
4	389637	530.252485913391	0.015644298921
4	389640	530.254939556364	0.002453642973
4	389643	530.255612883812	0.000673327448
4	389646	530.256125502619	0.000512618807
4	389663	530.283400817541	0.027275314922
4	389674	530.307535280195	0.024134462654
4	389681	530.312306117045	0.00477083685
4	389684	530.312693419474	0.000387302429
4	389699	530.338041586733	0.025348167259
4	389702	530.339414440704	0.001372853971
4	389705	530.339854465623	0.000440024919
4	389716	530.348294153829	0.008439688206
4	389727	530.398915101218	0.050620947389
4	389730	530.400358521117	0.001443419899
4	389737	530.408108522439	0.007750001322
4	389752	530.479094332741	0.070985810302
4	389783	530.577003839973	0.097909507232
4	389794	530.580310949498	0.003307109525
4	389813	530.630482495877	0.050171546379
4	389816	530.630805310128	0.000322814251
4	389847	530.677568205497	0.046762895369
4	389854	530.682732363365	0.005164157868
4	389857	530.683878058021	0.001145694656
4	389880	530.709941580236	0.026063522215
4	389883	530.710245165134	0.000303584898
4	389898	530.750644345546	0.040399180412
4	389905	530.757366496301	0.006722150755
4	389912	530.768176827758	0.010810331457
4	389927	530.7929616732	0.024784845442
4	389974	530.823635088181	0.030673414981
4	389985	530.831723204446	0.008088116265
4	390078	531.000294074127	0.168570869681
4	390085	531.027529811312	0.027235737185
4	390090	531.02820638052	0.000676569208
4	390103	531.040546492054	0.012340111534
4	390120	531.055846168114	0.01529967606
4	390159	531.084819742282	0.028973574168
4	390190	531.100071179575	0.015251437293
4	390199	531.103943769657	0.003872590082
4	390206	531.105048863446	0.001105093789
4	390211	531.106726471514	0.001677608068
4	390220	531.110460689285	0.003734217771
4	390225	531.112798656482	0.002337967197
4	390242	531.119625542079	0.006826885597
4	390273	531.141849302156	0.022223760077
4	390288	531.152610904689	0.010761602533
4	390299	531.154768470788	0.002157566099
4	390304	531.156180250104	0.001411779316
4	390321	531.165410042303	0.009229792199
4	390330	531.16962591589	0.004215873587
4	390343	531.183481516618	0.013855600728
4	390358	531.213799865678	0.03031834906
4	390405	531.340862083519	0.127062217841
4	390408	531.341096478584	0.000234395065
4	390411	531.341731232239	0.000634753655
4	390468	531.369135497202	0.027404264963
4	390471	531.369932848192	0.00079735099
4	390474	531.370090127573	0.000157279381
4	390559	531.551182820724	0.181092693151
4	390590	531.625187501899	0.074004681175
4	390593	531.626419643329	0.00123214143
4	390612	531.649065961965	0.022646318636
4	390615	531.649112048658	4.6086693e-05
4	390618	531.650165917619	0.001053868961
4	390649	531.785861649574	0.135695731955
4	390656	531.78658271806	0.000721068486
4	390697	531.812197208544	0.025614490484
4	390722	531.832476174595	0.020278966051
4	390729	531.839225108134	0.006748933539
4	390752	531.877937505743	0.038712397609
4	390807	531.965820600852	0.087883095109
4	390873	532.062240464814	0.096419863962
4	390900	532.081140568625	0.018900103811
4	390915	532.103380669543	0.022240100918
4	390954	532.163618845637	0.060238176094
4	390981	532.174152943044	0.010534097407
4	391000	532.183864206968	0.009711263924
4	391007	532.189061303546	0.005197096578
4	391030	532.21412144089	0.025060137344
4	391033	532.215045655612	0.000924214722
4	391036	532.216179519491	0.001133863879
4	391057	532.26686016802	0.050680648529
4	391060	532.267415974544	0.000555806524
4	391071	532.271438998331	0.004023023787
4	391078	532.276906128556	0.005467130225
4	391087	532.286033447117	0.009127318561
4	391102	532.304550970333	0.018517523216
4	391105	532.305975098271	0.001424127938
4	391108	532.306292045472	0.000316947201
4	391115	532.31695911735	0.010667071878
4	391118	532.317304446381	0.000345329031
4	391129	532.3207688952	0.003464448819
4	391156	532.341452153897	0.020683258697
4	391187	532.361814326237	0.02036217234
4	391192	532.362102429828	0.000288103591
4	391209	532.37084353122	0.008741101392
4	391226	532.38030324093	0.00945970971
4	391235	532.384232654394	0.003929413464
4	391254	532.39623720297	0.012004548576
4	391273	532.408610065079	0.012372862109
4	391310	532.472384182697	0.063774117618
4	391323	532.477093863554	0.004709680857
4	391382	532.575638777352	0.098544913798
4	391389	532.57902791206	0.003389134708
4	391396	532.615755257696	0.036727345636
4	391415	532.632305598177	0.016550340481
4	391418	532.634696079427	0.00239048125
4	391441	532.671184125287	0.03648804586
4	391444	532.671237977948	5.3852661e-05
4	391531	532.791234348062	0.119996370114
4	391570	532.890163897457	0.098929549395
4	391577	532.891881875871	0.001717978414
4	391580	532.898653371517	0.006771495646
4	391611	532.987340607937	0.08868723642
4	391637	533.043118536184	0.055777928247
4	391652	533.053984668078	0.010866131894
4	391671	533.066484048267	0.012499380189
4	391690	533.083115628228	0.016631579961
4	391705	533.088956773566	0.005841145338
4	391714	533.090933025122	0.001976251556
4	391723	533.094458589676	0.003525564554
4	391740	533.10443231718	0.009973727504
4	391747	533.105181391188	0.000749074008
4	391750	533.105290357314	0.000108966126
4	391755	533.105865367958	0.000575010644
4	391786	533.142699736724	0.036834368766
4	391789	533.145696181037	0.002996444313
4	391804	533.175082661268	0.029386480231
4	391811	533.180483749148	0.00540108788
4	391814	533.180995876766	0.000512127618
4	391823	533.182548909733	0.001553032967
4	391848	533.19305300518	0.010504095447
4	391893	533.216634176532	0.023581171352
4	391920	533.232645400372	0.01601122384
4	391941	533.250729667154	0.018084266782
4	391952	533.325233113445	0.074503446291
4	391963	533.328510429181	0.003277315736
4	391970	533.352317785614	0.023807356433
4	391981	533.354903374999	0.002585589385
4	392000	533.364800623589	0.00989724859
4	392035	533.379946673373	0.015146049784
4	392098	533.507657259642	0.127710586269
4	392111	533.538748311404	0.031091051762
4	392124	533.544277277098	0.005528965694
4	392145	533.549618127723	0.005340850625
4	392154	533.552409685545	0.002791557822
4	392157	533.555363732518	0.002954046973
4	392174	533.57481868598	0.019454953462
4	392199	533.645382742347	0.070564056367
4	392218	533.672740324118	0.027357581771
4	392237	533.686086374892	0.013346050774
4	392260	533.712638286405	0.026551911513
4	392275	533.719128603755	0.00649031735
4	392278	533.719133856663	5.252908e-06
4	392289	533.731927380638	0.012793523975
4	392306	533.74698321079	0.015055830152
4	392337	533.772646455098	0.025663244308
4	392362	533.793759742949	0.021113287851
4	392393	533.809499127565	0.015739384616
4	392404	533.816954168188	0.007455040623
4	392413	533.821689420766	0.004735252578
4	392418	533.823176143714	0.001486722948
4	392427	533.827350504734	0.00417436102
4	392432	533.828043930405	0.000693425671
4	392441	533.830568840144	0.002524909739
4	392506	533.936787030673	0.106218190529
4	392529	533.975186595611	0.038399564938
4	392548	533.993537285167	0.018350689556
4	392563	533.998347138539	0.004809853372
4	392597	534.059800472244	0.061453333705
4	392604	534.066979982121	0.007179509877
4	392615	534.074932842946	0.007952860825
4	392646	534.145047995816	0.07011515287
4	392725	534.23756405556	0.092516059744
4	392760	534.349175319157	0.111611263597
4	392779	534.378117855811	0.028942536654
4	392784	534.379632346938	0.001514491127
4	392793	534.382849413926	0.003217066988
4	392800	534.388182740659	0.005333326733
4	392827	534.442608252408	0.054425511749
4	392830	534.443614007933	0.001005755525
4	392837	534.446031650945	0.002417643012
4	392848	534.449319684398	0.003288033453
4	392859	534.483877294933	0.034557610535
4	392870	534.491601739996	0.007724445063
4	392877	534.493837346717	0.002235606721
4	392892	534.514432684478	0.020595337761
4	392899	534.515049096653	0.000616412175
4	392910	534.519393314949	0.004344218296
4	392981	534.616267912757	0.096874597808
4	392984	534.616580336662	0.000312423905
4	392993	534.620921641136	0.004341304474
4	392996	534.621565229569	0.000643588433
4	393011	534.627936332143	0.006371102574
4	393030	534.644470907232	0.016534575089
4	393033	534.644536507597	6.5600365e-05
4	393052	534.651974905103	0.007438397506
4	393067	534.672008370066	0.020033464963
4	393070	534.673184073906	0.00117570384
4	393073	534.674073083052	0.000889009146
4	393102	534.717104287652	0.0430312046
4	393121	534.739219718213	0.022115430561
4	393136	534.77093539845	0.031715680237
4	393151	534.791697122037	0.020761723587
4	393154	534.792481459268	0.000784337231
4	393189	534.834694351793	0.042212892525
4	393210	534.851091703233	0.01639735144
4	393217	534.854947046251	0.003855343018
4	393256	534.869583766534	0.014636720283
4	393285	534.893903957783	0.024320191249
4	393304	534.904632840993	0.01072888321
4	393319	534.909770668075	0.005137827082
4	393326	534.912008881298	0.002238213223
4	393357	534.959816813873	0.047807932575
4	393384	534.976972996232	0.017156182359
4	393399	534.981116452525	0.004143456293
4	393402	534.982066542982	0.000950090457
4	393459	535.05067573662	0.068609193638
4	393468	535.05992834543	0.00925260881
4	393471	535.060754020094	0.000825674664
4	393478	535.067481925582	0.006727905488
4	393485	535.070751288172	0.00326936259
4	393488	535.071853495868	0.001102207696
4	393495	535.075291523926	0.003438028058
4	393518	535.136584284806	0.06129276088
4	393591	535.340375666465	0.203791381659
4	393606	535.351807626337	0.011431959872
4	393623	535.363169812241	0.011362185904
4	393638	535.375103049579	0.011933237338
4	393641	535.375181535831	7.8486252e-05
4	393656	535.432822489991	0.05764095416
4	393665	535.457370090356	0.024547600365
4	393710	535.549940063444	0.092569973088
4	393729	535.605304459367	0.055364395923
4	393736	535.611186147372	0.005881688005
4	393763	535.654628205265	0.043442057893
4	393770	535.657777797069	0.003149591804
4	393785	535.745730178422	0.087952381353
4	393804	535.791053110605	0.045322932183
4	393839	535.883903766729	0.092850656124
4	393846	535.912142641064	0.028238874335
4	393855	535.914660518844	0.00251787778
4	393858	535.915261201607	0.000600682763
4	393898	536.007283660458	0.092022458851
4	393909	536.041341049493	0.034057389035
4	393924	536.063195246123	0.02185419663
4	393935	536.067501105835	0.004305859712
4	393950	536.087418255763	0.019917149928
4	393965	536.104284128877	0.016865873114
4	393988	536.156632960586	0.052348831709
4	394019	536.216787787009	0.060154826423
4	394046	536.25919820791	0.042410420901
4	394065	536.271417955938	0.012219748028
4	394088	536.330312029662	0.058894073724
4	394103	536.350078222578	0.019766192916
4	394106	536.350423024561	0.000344801983
4	394149	536.417176157428	0.066753132867
4	394156	536.422099022519	0.004922865091
4	394223	536.53608958958	0.113990567061
4	394234	536.54744875424	0.01135916466
4	394241	536.578691423198	0.031242668958
4	394288	536.678581009634	0.099889586436
4	394311	536.689514175547	0.010933165913
4	394314	536.689677498022	0.000163322475
4	394317	536.69004730633	0.000369808308
4	394324	536.692722173445	0.002674867115
4	394347	536.740963978965	0.04824180552
4	394374	536.769371265208	0.028407286243
4	394377	536.769401482032	3.0216824e-05
4	394428	536.862839610728	0.093438128696
4	394493	536.898267915819	0.035428305091
4	394498	536.900075949619	0.0018080338
4	394511	536.905048837408	0.004972887789
4	394524	536.913621682689	0.008572845281
4	394531	536.914339058692	0.000717376003
4	394570	536.939083145576	0.024744086884
4	394601	536.963865764829	0.024782619253
4	394624	536.978865477745	0.014999712916
4	394678	537.049966841504	0.071101363759
4	394693	537.099220290191	0.049253448687
4	394720	537.159871077593	0.060650787402
4	394727	537.186969965674	0.027098888081
4	394762	537.240578940614	0.05360897494
4	394821	537.462745951829	0.222167011215
4	394840	537.488720802814	0.025974850985
4	394851	537.497405699128	0.008684896314
4	394854	537.498502765279	0.001097066151
4	394857	537.498541944519	3.917924e-05
4	394888	537.523921138893	0.025379194374
4	394895	537.525588612524	0.001667473631
4	394918	537.537068236087	0.011479623563
4	394923	537.538421501366	0.001353265279
4	394928	537.539448394852	0.001026893486
4	394939	537.541983902831	0.002535507979
4	394942	537.543695294224	0.001711391393
4	394949	537.547084828355	0.003389534131
4	395034	537.708192263703	0.161107435348
4	395083	537.787949562814	0.079757299111
4	395110	537.816360793661	0.028411230847
4	395121	537.823033785421	0.00667299176
4	395128	537.839599768905	0.016565983484
4	395135	537.842899409592	0.003299640687
4	395166	537.871403720057	0.028504310465
4	395171	537.872091975212	0.000688255155
4	395212	537.915841685509	0.043749710297
4	395231	537.939422202349	0.02358051684
4	395236	537.943021297632	0.003599095283
4	395257	537.960550706814	0.017529409182
4	395262	537.962066921072	0.001516214258
4	395267	537.964054330651	0.001987409579
4	395289	538.004480774872	0.040426444221
4	395320	538.026067691684	0.021586916812
4	395423	538.158217940341	0.132150248657
4	395430	538.163073488066	0.004855547725
4	395441	538.169625704518	0.006552216452
4	395464	538.220621145075	0.050995440557
4	395479	538.227886880551	0.007265735476
4	395482	538.229074400388	0.001187519837
4	395493	538.233670435897	0.004596035509
4	395496	538.234325088611	0.000654652714
4	395499	538.234691298347	0.000366209736
4	395542	538.281337525082	0.046646226735
4	395565	538.294014673666	0.012677148584
4	395576	538.306558934988	0.012544261322
4	395583	538.308930582848	0.00237164786
4	395634	538.385800376626	0.076869793778
4	395653	538.405524063379	0.019723686753
4	395700	538.471819498341	0.066295434962
4	395711	538.49564581812	0.023826319779
4	395738	538.532646278113	0.037000459993
4	395753	538.553582007589	0.020935729476
4	395792	538.618205637028	0.064623629439
4	395863	538.723970359201	0.105764722173
4	395892	538.752021380568	0.028051021367
4	395901	538.75289443307	0.000873052502
4	395928	538.807638379824	0.054743946754
4	395941	538.814719116579	0.007080736755
4	395946	538.81486293623	0.000143819651
4	395957	538.843432194421	0.028569258191
4	395988	538.862393598584	0.018961404163
4	395997	538.863363575707	0.000969977123
4	396042	538.920925153089	0.057561577382
4	396073	538.985319653303	0.064394500214
4	396095	539.000234688159	0.014915034856
4	396098	539.000271738286	3.7050127e-05
4	396113	539.005070807091	0.004799068805
4	396144	539.066134687174	0.061063880083
4	396147	539.066758240858	0.000623553684
4	396186	539.157075697093	0.090317456235
4	396205	539.168869929964	0.011794232871
4	396216	539.174844926875	0.005974996911
4	396223	539.178484688382	0.003639761507
4	396238	539.236023353947	0.057538665565
4	396241	539.241810056832	0.005786702885
4	396264	539.273870982134	0.032060925302
4	396271	539.277428866805	0.003557884671
4	396294	539.308848866054	0.031419999249
4	396309	539.356307985124	0.04745911907
4	396320	539.375928407427	0.019620422303
4	396323	539.378086747518	0.002158340091
4	396330	539.38629419279	0.008207445272
4	396385	539.468113716404	0.081819523614
4	396392	539.472576615467	0.004462899063
4	396399	539.475515353123	0.002938737656
4	396402	539.475551111551	3.5758428e-05
4	396423	539.562876325865	0.087325214314
4	396440	539.577434145465	0.0145578196
4	396483	539.680441187684	0.103007042219
4	396554	539.791957582917	0.111516395233
4	396561	539.799400826524	0.007443243607
4	396576	539.814488885425	0.015088058901
4	396603	539.825898155704	0.011409270279
4	396638	539.929135764953	0.103237609249
4	396657	539.993876712828	0.064740947875
4	396664	539.997992334205	0.004115621377
4	396687	540.036139504093	0.038147169888
4	396690	540.036324634018	0.000185129925
4	396693	540.038044400484	0.001719766466
4	396728	540.074490773423	0.036446372939
4	396735	540.079345642111	0.004854868688
4	396746	540.08875373493	0.009408092819
4	396751	540.090358474882	0.001604739952
4	396784	540.150284795272	0.05992632039
4	396823	540.291064066552	0.14077927128
4	396830	540.298512181396	0.007448114844
4	396833	540.29853402069	2.1839294e-05
4	396856	540.423926231462	0.125392210772
4	396879	540.437916544546	0.013990313084
4	396924	540.506674707226	0.06875816268
4	396929	540.507133715445	0.000459008219
4	396936	540.514214695044	0.007080979599
4	396971	540.540286396799	0.026071701755
4	396974	540.541360151527	0.001073754728
4	396997	540.573684127213	0.032323975686
4	397000	540.57419913043	0.000515003217
4	397003	540.574374279006	0.000175148576
4	397010	540.576997384494	0.002623105488
4	397065	540.661864600591	0.084867216097
4	397112	540.691208982941	0.02934438235
4	397131	540.760886264499	0.069677281558
4	397146	540.765544407186	0.004658142687
4	397167	540.820107978713	0.054563571527
4	397170	540.820605646985	0.000497668272
4	397177	540.825174230968	0.004568583983
4	397180	540.825460248265	0.000286017297
4	397225	540.85419095402	0.028730705755
4	397228	540.854429766937	0.000238812917
4	397259	540.88687063707	0.032440870133
4	397272	540.898200807096	0.011330170026
4	397275	540.898213128028	1.2320932e-05
4	397284	540.902379090673	0.004165962645
4	397295	540.907913360538	0.005534269865
4	397322	540.933223313315	0.025309952777
4	397325	540.933239620929	1.6307614e-05
4	397336	540.955172634421	0.021933013492
4	397339	540.956894808838	0.001722174417
4	397346	540.970859248924	0.013964440086
4	397361	540.979365747645	0.008506498721
4	397364	540.979561153612	0.000195405967
4	397383	541.003486070887	0.023924917275
4	397386	541.006126544391	0.002640473504
4	397393	541.007976796226	0.001850251835
4	397398	541.009479701738	0.001502905512
4	397401	541.010069386967	0.000589685229
4	397444	541.086547163363	0.076477776396
4	397467	541.127129565416	0.040582402053
4	397474	541.133217645678	0.006088080262
4	397489	541.140657064711	0.007439419033
4	397492	541.1416812105	0.001024145789
4	397537	541.209385305811	0.067704095311
4	397554	541.218234388207	0.008849082396
4	397561	541.22171248526	0.003478097053
4	397572	541.234874261564	0.013161776304
4	397583	541.260127552283	0.025253290719
4	397618	541.347397794681	0.087270242398
4	397657	541.377652013408	0.030254218727
4	397672	541.381834317423	0.004182304015
4	397687	541.401481541151	0.019647223728
4	397722	541.428480196415	0.026998655264
4	397733	541.435522836938	0.007042640523
4	397736	541.438326462832	0.002803625894
4	397741	541.440412332487	0.002085869655
4	397750	541.453689331725	0.013276999238
4	397757	541.457189296714	0.003499964989
4	397764	541.465013243148	0.007823946434
4	397771	541.467946316989	0.002933073841
4	397790	541.47486919905	0.006922882061
4	397817	541.494971376238	0.020102177188
4	397828	541.500773464004	0.005802087766
4	397831	541.500939612653	0.000166148649
4	397834	541.501884923074	0.000945310421
4	397839	541.502511136053	0.000626212979
4	397876	541.528899109151	0.026387973098
4	397883	541.533913995578	0.005014886427
4	397898	541.549739371677	0.015825376099
4	397917	541.594461235549	0.044721863872
4	397948	541.618350929059	0.02388969351
4	397951	541.619417739249	0.00106681019
4	397986	541.639473924709	0.02005618546
4	398029	541.728727885088	0.089253960379
4	398044	541.75655834206	0.027830456972
4	398059	541.768566911844	0.012008569784
4	398062	541.769784078839	0.001217166995
4	398117	541.855052341383	0.085268262544
4	398136	541.91337784852	0.058325507137
4	398147	541.931567046405	0.018189197885
4	398166	541.95622719415	0.024660147745
4	398185	541.972212681568	0.015985487418
4	398235	542.033009812466	0.060797130898
4	398248	542.045348424023	0.012338611557
4	398277	542.068327056353	0.02297863233
4	398312	542.091401034281	0.023073977928
4	398325	542.096729229309	0.005328195028
4	398336	542.106614696495	0.009885467186
4	398339	542.108523869248	0.001909172753
4	398348	542.110668334132	0.002144464884
4	398379	542.135882330962	0.02521399683
4	398382	542.135987951568	0.000105620606
4	398413	542.15873678809	0.022748836522
4	398420	542.161802900632	0.003066112542
4	398465	542.208225412045	0.046422511413
4	398470	542.208674705546	0.000449293501
4	398473	542.209113238835	0.000438533289
4	398484	542.213370389526	0.004257150691
4	398503	542.226938378822	0.013567989296
4	398510	542.228566397659	0.001628018837
4	398531	542.247863243051	0.019296845392
4	398536	542.248712333663	0.000849090612
4	398563	542.273122708326	0.024410374663
4	398576	542.276997765562	0.003875057236
4	398593	542.339700619873	0.062702854311
4	398600	542.400757349698	0.061056729825
4	398603	542.401591128461	0.000833778763
4	398640	542.467603798246	0.066012669785
4	398653	542.477079225627	0.009475427381
4	398664	542.483168992489	0.006089766862
4	398691	542.554980731933	0.071811739444
4	398706	542.580466279479	0.025485547546
4	398717	542.621939208613	0.041472929134
4	398732	542.631104878956	0.009165670343
4	398753	542.647449431911	0.016344552955
4	398758	542.649969751317	0.002520319406
4	398773	542.660635141139	0.010665389822
4	398804	542.704909453759	0.04427431262
4	398823	542.721624813885	0.016715360126
4	398850	542.74625600588	0.024631191995
4	398853	542.747983379971	0.001727374091
4	398860	542.753350061664	0.005366681693
4	398919	542.858285541634	0.10493547997
4	398930	542.869886227415	0.011600685781
4	398949	542.884793735133	0.014907507718
4	398964	542.89822982742	0.013436092287
4	398967	542.899419317353	0.001189489933
4	398970	542.899867661123	0.00044834377
4	398973	542.90028241083	0.000414749707
4	398976	542.900989044129	0.000706633299
4	398983	542.919055029446	0.018065985317
4	398990	542.929363027945	0.010307998499
4	398993	542.929883783407	0.000520755462
4	399022	542.962022186679	0.032138403272
4	399043	542.989550846969	0.02752866029
4	399089	543.038688159534	0.049137312565
4	399104	543.080506309061	0.041818149527
4	399131	543.100790599525	0.020284290464
4	399138	543.104493947753	0.003703348228
4	399145	543.110150429348	0.005656481595
4	399152	543.112879679576	0.002729250228
4	399163	543.146738541705	0.033858862129
4	399190	543.214466781402	0.067728239697
4	399201	543.22589143683	0.011424655428
4	399212	543.234468677819	0.008577240989
4	399231	543.251744733797	0.017276055978
4	399248	543.260529151692	0.008784417895
4	399257	543.272314577003	0.011785425311
4	399260	543.272413103935	9.8526932e-05
4	399283	543.292384142567	0.019971038632
4	399286	543.292414473612	3.0331045e-05
4	399303	543.30921506132	0.016800587708
4	399306	543.309537675084	0.000322613764
4	399313	543.31251786958	0.002980194496
4	399342	543.376594488487	0.064076618907
4	399353	543.38136427368	0.004769785193
4	399358	543.383363015528	0.001998741848
4	399363	543.385020006625	0.001656991097
4	399368	543.388015689014	0.002995682389
4	399377	543.389701473742	0.001685784728
4	399412	543.421436551478	0.031735077736
4	399423	543.424605773501	0.003169222023
4	399426	543.426344788172	0.001739014671
4	399429	543.428906004457	0.002561216285
4	399436	543.448789871277	0.01988386682
4	399443	543.457435384846	0.008645513569
4	399450	543.464821184207	0.007385799361
4	399469	543.501708624553	0.036887440346
4	399476	543.53214828698	0.030439662427
4	399479	543.532490201948	0.000341914968
4	399490	543.541046573768	0.00855637182
4	399503	543.547207770207	0.006161196439
4	399524	543.561858498696	0.014650728489
4	399535	543.569364410234	0.007505911538
4	399594	543.663587180791	0.094222770557
4	399605	543.67144670642	0.007859525629
4	399616	543.685863422043	0.014416715623
4	399651	543.733254596837	0.047391174794
4	399670	543.739132567719	0.005877970882
4	399681	543.7443420093	0.005209441581
4	399736	543.852327406576	0.107985397276
4	399743	543.854952954542	0.002625547966
4	399770	543.867975571459	0.013022616917
4	399781	543.871933330571	0.003957759112
4	399794	543.87847091174	0.006537581169
4	399813	543.91100288998	0.03253197824
4	399822	543.914479964554	0.003477074574
4	399831	543.917299439447	0.002819474893
4	399848	543.934936993893	0.017637554446
4	399898	544.032314529134	0.097377535241
4	399909	544.043957024221	0.011642495087
4	399936	544.126409882788	0.082452858567
4	399983	544.178507093082	0.052097210294
4	400012	544.226432554474	0.047925461392
4	400041	544.283365686201	0.056933131727
4	400080	544.363082272006	0.079716585805
4	400107	544.408161926604	0.045079654598
4	400174	544.481593441687	0.073431515083
4	400185	544.517568317815	0.035974876128
4	400188	544.517859368795	0.00029105098
4	400295	544.640011242832	0.122151874037
4	400302	544.640948087382	0.00093684455
4	400315	544.652572678968	0.011624591586
4	400324	544.654309437542	0.001736758574
4	400339	544.67669709547	0.022387657928
4	400422	544.758103660966	0.081406565496
4	400429	544.762700816848	0.004597155882
4	400440	544.780977480073	0.018276663225
4	400443	544.781691080625	0.000713600552
4	400446	544.782303827074	0.000612746449
4	400449	544.782654106344	0.00035027927
4	400464	544.798419775908	0.015765669564
4	400515	544.8415837975	0.043164021592
4	400522	544.844797061043	0.003213263543
4	400573	544.885777744118	0.040980683075
4	400604	544.906536317353	0.020758573235
4	400607	544.908094489439	0.001558172086
4	400638	544.972987852381	0.064893362942
4	400641	544.973398508479	0.000410656098
4	400672	544.992864894043	0.019466385564
4	400703	545.030636279257	0.037771385214
4	400710	545.031991468503	0.001355189246
4	400719	545.03354121952	0.001549751017
4	400734	545.047916025916	0.014374806396
4	400747	545.05486289925	0.006946873334
4	400752	545.055862499679	0.000999600429
4	400813	545.104454162701	0.048591663022
4	400836	545.122400360341	0.01794619764
4	400849	545.125982005642	0.003581645301
4	400852	545.130647559148	0.004665553506
4	400855	545.132009663481	0.001362104333
4	400892	545.190327893723	0.058318230242
4	400901	545.192373153314	0.002045259591
4	400906	545.196013415716	0.003640262402
4	400909	545.196851686939	0.000838271223
4	400920	545.201649818479	0.00479813154
4	400973	545.282666451878	0.081016633399
4	401034	545.379833757696	0.097167305818
4	401057	545.3992109405	0.019377182804
4	401076	545.41435580374	0.01514486324
4	401083	545.422328410911	0.007972607171
4	401118	545.450505848064	0.028177437153
4	401169	545.503550112305	0.053044264241
4	401200	545.535239663354	0.031689551049
4	401203	545.535459795482	0.000220132128
4	401230	545.607820259306	0.072360463824
4	401249	545.626269864213	0.018449604907
4	401256	545.634017953238	0.007748089025
4	401279	545.676487489515	0.042469536277
4	401290	545.688718506754	0.012231017239
4	401293	545.689212391433	0.000493884679
4	401300	545.708872202514	0.019659811081
4	401323	545.78421136272	0.075339160206
4	401330	545.786063404378	0.001852041658
4	401345	545.795308239267	0.009244834889
4	401374	545.814010544108	0.018702304841
4	401383	545.817662897868	0.00365235376
4	401386	545.818198966888	0.00053606902
4	401393	545.819416859033	0.001217892145
4	401398	545.81981597403	0.000399114997
4	401407	545.823668754395	0.003852780365
4	401418	545.83734984123	0.013681086835
4	401441	545.845780717349	0.008430876119
4	401444	545.848963474646	0.003182757297
4	401487	545.928550605063	0.079587130417
4	401490	545.931765672838	0.003215067775
4	401497	545.934546983954	0.002781311116
4	401500	545.935386669707	0.000839685753
4	401507	545.941664193427	0.00627752372
4	401565	546.000125122813	0.058460929386
4	401572	546.014605993074	0.014480870261
4	401579	546.017225021111	0.002619028037
4	401610	546.133800812521	0.11657579141
4	401625	546.148304332705	0.014503520184
4	401660	546.179309687803	0.031005355098
4	401663	546.180843329553	0.00153364175
4	401682	546.196332652843	0.01548932329
4	401713	546.283419735942	0.087087083099
4	401728	546.292374906255	0.008955170313
4	401743	546.315039886237	0.022664979982
4	401750	546.343579063091	0.028539176854
4	401757	546.346688738175	0.003109675084
4	401796	546.463576122195	0.11688738402
4	401799	546.464355150653	0.000779028458
4	401804	546.465040020423	0.00068486977
4	401857	546.53075600974	0.065715989317
4	401860	546.530920820182	0.000164810442
4	401867	546.537732939916	0.006812119734
4	401880	546.542491359673	0.004758419757
4	401893	546.551639752646	0.009148392973
4	401912	546.561067791135	0.009428038489
4	401915	546.562183781964	0.001115990829
4	402014	546.69668387109	0.134500089126
4	402041	546.721367274799	0.024683403709
4	402110	546.847102803877	0.125735529078
4	402115	546.853759128493	0.006656324616
4	402178	546.934864655116	0.081105526623
4	402196	547.028330095831	0.093465440715
4	402205	547.03089360811	0.002563512279
4	402216	547.03424564406	0.00335203595
4	402245	547.058633220226	0.024387576166
4	402266	547.068932677486	0.01029945726
4	402269	547.070454654507	0.001521977021
4	402320	547.148357911961	0.077903257454
4	402349	547.162959911164	0.014601999203
4	402394	547.209036715582	0.046076804418
4	402425	547.219842361183	0.010805645601
4	402430	547.221879479101	0.002037117918
4	402469	547.324267588853	0.102388109752
4	402540	547.403113289199	0.078845700346
4	402555	547.405946377908	0.002833088709
4	402566	547.416385288326	0.010438910418
4	402585	547.449871864068	0.033486575742
4	402588	547.451113468288	0.00124160422
4	402631	547.485355064299	0.034241596011
[...]
5	1098447	1487.35360350673	0.900538271335
5	1098458	1487.394175434384	2.377724852501
5	1098481	1487.456396875949	0.944609467707
5	1098484	1487.45741066212	0.001013786171
5	1098489	1487.457768754227	0.000358092107
5	1098494	1487.459171328642	0.001402574415
5	1098541	1487.544640645222	3.121669956001
5	1098546	1487.545366238865	0.000725593643
5	1098563	1487.587664478989	1.754755353873
5	1098586	1487.624362011841	2.414382455908
5	1098613	1487.720185014635	1.020435976085
5	1098616	1487.720342881477	0.000157866842
5	1098667	1487.747647182449	3.122731028362
5	1098692	1487.758031154976	0.976556441894
5	1098695	1487.758855856883	1.776339087601
5	1098708	1487.768966157286	0.010110300403
5	1098711	1487.772265284916	0.00329912763
5	1098722	1487.826757550836	0.961907005176
5	1098739	1487.838965727898	0.972299836456
5	1098752	1487.842000206082	5.46870923521
5	1098757	1487.843122187	1.704296867212
5	1098762	1487.846693243701	1.736784272737
5	1098765	1487.848424447038	0.006424240956
5	1098770	1487.849353400287	0.006231213287
5	1098785	1487.856900812456	0.008476365418
5	1098792	1487.858731001099	0.019765273201
5	1098803	1487.861947895486	0.003216894387
5	1098816	1487.868950882279	3.882511997647
5	1098821	1487.870341218088	0.001390335809
5	1098846	1487.881002149017	1.70971609925
5	1098853	1487.891234853238	3.042691946212
5	1098868	1487.94645396312	2.381181548993
5	1098924	1488.086033862187	1.815066198215
5	1098929	1488.088616040791	0.002582178604
5	1098952	1488.128246711722	1.770311497518
5	1098983	1488.192578818574	4.777729477979
5	1099018	1488.220010344959	0.027431526385
5	1099033	1488.229252266792	0.835076832408
5	1099040	1488.235694398716	3.958837797218
5	1099047	1488.241253168441	6.142219354675
5	1099058	1488.252130916597	0.792959587955
5	1099061	1488.252925071006	0.000794154409
5	1099080	1488.295320167387	5.410296824922
5	1099091	1488.301929067168	0.006608899781
5	1099098	1488.304482441829	2.503693192517
5	1099105	1488.311060189697	0.006577747868
5	1099112	1488.323930522278	0.012870332581
5	1099119	1488.326627660697	0.781261421832
5	1099122	1488.329013179544	0.002385518847
5	1099125	1488.329199051305	0.000185871761
5	1099136	1488.342380292319	3.870616230321
5	1099147	1488.347508218915	0.759843739926
5	1099166	1488.366031499033	8.226344444094
5	1099175	1488.371342697368	0.023834478453
5	1099196	1488.402434193196	1.726189621995
5	1099207	1488.40460279019	0.780240778349
5	1099214	1488.407004157994	0.002401367804
5	1099265	1488.458109663255	0.710462480806
5	1099276	1488.47686857206	0.018758908805
5	1099283	1488.479783157055	0.002914584995
5	1099290	1488.483697070473	0.003913913418
5	1099335	1488.508590247958	0.750559092982
5	1099338	1488.509265985588	1.662695979056
5	1099347	1488.513342182584	0.004751934626
5	1099382	1488.539916274393	8.820115030657
5	1099409	1488.552788059047	0.690840163561
5	1099424	1488.562791930171	0.692450712083
5	1099427	1488.56301190687	0.000219976699
5	1099434	1488.571444897538	0.018656838491
5	1099449	1488.582502387288	0.019490480418
5	1099480	1488.60474722279	5.275043474098
5	1099491	1488.618625611897	0.672171648777
5	1099494	1488.618770190015	0.000144578118
5	1099529	1488.653681257203	4.607442746087
5	1099536	1488.670256821416	1.658839834693
5	1099547	1488.679425864867	3.06597196577
5	1099566	1488.690702646066	1.578738004251
5	1099569	1488.690797033596	9.438753e-05
5	1099588	1488.710832071006	3.784937568933
5	1099595	1488.711903742882	0.001071671876
5	1099662	1488.825662040607	1.472058533877
5	1099681	1488.855618938095	0.619924539379
5	1099724	1488.957609366619	0.655680299451
5	1099729	1488.958670884864	0.001061518245
5	1099764	1488.975738831546	0.651808309268
5	1099773	1488.977837813379	0.019166928515
5	1099803	1489.009479004906	2.297148494749
5	1099814	1489.015354354498	0.005875349592
5	1099849	1489.096089482595	0.689085324601
5	1099858	1489.098591892831	2.342817419137
5	1099861	1489.101073023565	1.380730142088
5	1099864	1489.101088428716	0.002496535885
5	1099885	1489.11201648009	6.853448938567
5	1099892	1489.135957755099	2.297562855923
5	1099903	1489.140068379974	0.004110624875
5	1099910	1489.150188332161	0.666491261688
5	1099917	1489.151808567597	0.001620235436
5	1099976	1489.229687997342	3.086647109442
5	1099993	1489.268475880009	0.685973492721
5	1100040	1489.331073366475	1.439838513237
5	1100049	1489.34013949351	3.79433700447
5	1100060	1489.351741613793	0.69806035659
5	1100067	1489.356460015651	0.004718401858
5	1100082	1489.364805092494	0.008345076843
5	1100089	1489.368986421353	0.689560556486
5	1100092	1489.369134550379	0.000148129026
5	1100111	1489.390288042733	2.26417335222
5	1100114	1489.391336186057	0.001048143324
5	1100141	1489.426117667846	0.714213924964
5	1100152	1489.430421732863	2.281700430105
5	1100183	1489.482756467495	5.315664412775
5	1100208	1489.493626067378	2.158315922459
5	1100233	1489.515567850829	1.286315584037
5	1100256	1489.543267879705	1.302014711264
5	1100279	1489.600460636462	4.54317348312
5	1100282	1489.600894490396	0.000433853934
5	1100285	1489.601438514533	0.000544024137
5	1100308	1489.661363779314	3.887260907653
5	1100311	1489.662397108309	0.001033328995
5	1100314	1489.662445529449	4.842114e-05
5	1100341	1489.690472879225	0.714734047679
5	1100348	1489.696018408709	0.005545529484
5	1100363	1489.704262256645	0.726424443266
5	1100418	1489.839204395066	1.43677020187
5	1100437	1489.845761624184	0.744673195468
5	1100444	1489.847702166583	0.001940542399
5	1100451	1489.862724566521	0.015022399938
5	1100470	1489.882619434437	0.781546410872
5	1100477	1489.891365496711	0.779349016621
5	1100480	1489.894390578743	0.003025082032
5	1100487	1489.905404206604	0.011013627861
5	1100490	1489.905451019441	4.6812837e-05
5	1100509	1489.918712402209	0.766903834612
5	1100512	1489.919395224152	0.000682821943
5	1100523	1489.92619857337	0.006803349218
5	1100536	1489.93330615062	0.00710757725
5	1100539	1489.933722690041	2.161457405125
5	1100548	1489.946082753944	0.012776603324
5	1100559	1489.975886954592	1.466620969004
5	1100562	1489.976606039474	0.000719084882
5	1100697	1490.175592716857	0.844519350382
5	1100714	1490.193551419566	0.824416869187
5	1100731	1490.218621453468	1.548364632052
5	1100758	1490.232888305293	0.841552119236
5	1100801	1490.272777645918	2.144530934196
5	1100808	1490.27391829734	3.05620332238
5	1100831	1490.288112500754	0.014194203414
5	1100862	1490.38839553061	1.562733490003
5	1100877	1490.400614687136	0.885046836307
5	1100884	1490.405939952814	2.185929607855
5	1100911	1490.429156047702	1.573537109607
5	1100918	1490.436698077277	0.835259562744
5	1100923	1490.43823448492	0.001536407643
5	1100944	1490.454211723647	2.201286652641
5	1100947	1490.454361276459	0.000149552812
5	1100954	1490.461280144523	4.688995026051
5	1101001	1490.495266200734	0.832820671285
5	1101014	1490.530871047065	2.188490754746
5	1101017	1490.531909562535	0.835891153826
5	1101036	1490.538978486978	0.007068924443
5	1101049	1490.570923544019	2.199580846651
5	1101060	1490.585758142997	2.219726643964
5	1101067	1490.586662307302	3.847890571973
5	1101082	1490.599231544765	0.013473401768
5	1101091	1490.602868921928	4.75346080952
5	1101126	1490.623995912473	4.725560369347
5	1101139	1490.629551282406	1.533461799811
5	1101188	1490.665767436416	0.03621615401
5	1101193	1490.667364458187	1.527296078213
5	1101228	1490.70383314259	0.757750388646
5	1101259	1490.724380252839	2.875026852552
5	1101286	1490.800738266007	5.262868223155
5	1101289	1490.80188659622	0.001148330213
5	1101312	1490.833442314156	3.00668476332
5	1101343	1490.895640988187	2.276870798172
5	1101386	1490.944900683111	0.751349263545
5	1101451	1491.094245418094	6.092016008126
5	1101478	1491.132816580555	1.65006011306
5	1101521	1491.222995078292	0.768633801833
5	1101556	1491.257745608825	4.646325647679
5	1101583	1491.27895141113	1.574689154485
5	1101598	1491.300259001681	0.021307590551
5	1101609	1491.311035155073	0.740111611054
5	1101620	1491.323600373085	0.72436882832
5	1101637	1491.359041243881	1.519836848815
5	1101682	1491.421001424481	0.797005512008
5	1101693	1491.469763133814	1.536040443773
5	1101708	1491.517988718461	0.814155575871
5	1101723	1491.527746040774	0.860381582587
5	1101726	1491.528260565638	0.000514524864
5	1101745	1491.586236134726	0.861855881887
5	1101780	1491.630323302754	0.828436706534
5	1101795	1491.634581021821	2.404893024479
5	1101802	1491.641821543798	0.011498241044
5	1101805	1491.644443780712	0.002622236914
5	1101824	1491.684909561116	3.113464663578
5	1101899	1491.799601339571	0.85470065646
5	1101918	1491.814072868709	2.449267776215
5	1101925	1491.834587415828	1.601699110535
5	1101936	1491.920517521276	2.490095788413
5	1101990	1492.001057639511	4.656467122829
5	1102069	1492.179191692405	1.64832064534
5	1102092	1492.217085978252	3.887886926947
5	1102099	1492.235408742746	1.696430255768
5	1102102	1492.235916897126	0.00050815438
5	1102137	1492.342194130198	1.018593757113
5	1102144	1492.342945410246	0.000751280048
5	1102163	1492.379816296228	2.517091729707
5	1102166	1492.379837676693	2.1380465e-05
5	1102175	1492.381607247207	1.022566003326
5	1102196	1492.393162535224	2.510543100787
5	1102205	1492.404581779324	3.389227424826
5	1102208	1492.404884308073	2.499433288632
5	1102213	1492.405756672726	0.000872364653
5	1102234	1492.414773073185	7.735314544199
5	1102237	1492.415328158051	0.009571485325
5	1102240	1492.415354149053	0.000581075868
5	1102243	1492.415846333552	0.000518175501
5	1102252	1492.416943641127	0.012361861803
5	1102259	1492.42357248901	0.006628847883
5	1102294	1492.484115821809	3.970773639225
5	1102325	1492.553015689559	0.908571908847
5	1102344	1492.564546012617	1.731103698461
5	1102351	1492.566490574449	0.001944561832
5	1102366	1492.589289258924	3.984542036134
5	1102373	1492.602984627905	3.262845134395
5	1102380	1492.604198693419	4.757505449718
5	1102395	1492.615306913246	0.815705573675
5	1102404	1492.625746015242	0.010439101996
5	1102457	1492.691904852861	0.771387331585
5	1102484	1492.737619676957	2.464842031039
5	1102493	1492.742827569934	10.104230719953
5	1102508	1492.755240602242	1.660995184148
5	1102537	1492.911714657511	2.523319126901
5	1102592	1492.954862776525	3.41159489682
5	1102676	1493.05473012164	2.559463920906
5	1102679	1493.05550227261	0.819585375484
5	1102700	1493.077673756026	0.022171483416
5	1102719	1493.101494247115	1.790459092042
5	1102722	1493.102513167659	0.001018920544
5	1102729	1493.117159234933	2.530496927631
5	1102740	1493.124340162746	0.007180927813
5	1102753	1493.132185203156	0.00784504041
5	1102770	1493.150680203587	0.807734793341
5	1102813	1493.20376470512	0.823927028427
5	1102828	1493.218432189136	0.803078040083
5	1102839	1493.226548952828	0.802976463818
5	1102848	1493.265234500988	1.795471367174
5	1102897	1493.340373616845	1.754137482119
5	1102924	1493.418097288051	5.561196475595
5	1102963	1493.488908456246	0.899619197322
5	1102966	1493.490578922095	0.001670465849
5	1102977	1493.521298082077	0.917099388658
5	1103028	1493.570241658459	4.879444624863
5	1103031	1493.57070578269	0.000464124231
5	1103086	1493.607382980216	1.772795564388
5	1103137	1493.659018499415	3.370905998661
5	1103192	1493.690873146001	0.948045576067
5	1103211	1493.745397013271	3.344782326135
5	1103218	1493.752887620501	3.346947667687
5	1103225	1493.763787221058	3.334631173356
5	1103256	1493.798115211438	1.618923519033
5	1103259	1493.798617371535	0.000502160097
5	1103274	1493.843543705849	2.585798097024
5	1103289	1493.855303785827	1.638217807575
5	1103316	1493.898359510385	0.820685754359
5	1103347	1493.934864724202	0.802679521046
5	1103350	1493.935749866642	0.00088514244
5	1103373	1493.95958190095	3.356712979022
5	1103376	1493.962207800868	0.002625899918
5	1103379	1493.963519161716	0.001311360848
5	1103398	1493.985384898757	1.592222363533
5	1103460	1494.028931812365	0.810499623229
5	1103475	1494.037881202892	0.811332250064
5	1103478	1494.037890437255	9.234363e-06
5	1103493	1494.051149337116	2.533160618655
5	1103500	1494.075953937551	0.810719436563
5	1103511	1494.092831696489	3.427064260073
5	1103518	1494.120698374021	2.592437808383
5	1103525	1494.12454511311	0.003846739089
5	1103528	1494.124810402749	0.000265289639
5	1103531	1494.125071400396	0.000260997647
5	1103542	1494.129768377719	4.153162338245
5	1103585	1494.17748878824	1.624473098681
5	1103612	1494.25347676916	6.372474620143
5	1103619	1494.257828692335	0.76724977024
5	1103638	1494.299877599397	0.77857951732
5	1103685	1494.416128480353	4.990010812507
5	1103696	1494.463940646509	1.726320969552
5	1103707	1494.468512806118	0.809494306703
5	1103718	1494.495076810617	2.494019171106
5	1103721	1494.496055614606	0.000978803989
5	1103724	1494.49607775417	2.2139564e-05
5	1103727	1494.496194502644	0.000116748474
5	1103736	1494.505004687695	5.011378620317
5	1103833	1494.731607033299	1.676876911659
5	1103876	1494.795875043011	0.832355881295
5	1103947	1494.8834657481	0.845575310845
5	1103952	1494.885178345172	0.001712597072
5	1104009	1494.968807711163	2.484691889354
5	1104040	1494.989061218096	6.449144943703
5	1104047	1494.992994748248	0.003933530152
5	1104064	1494.998202429754	0.005207681506
5	1104089	1495.093582213299	2.52709163885
5	1104092	1495.095345763678	0.001763550379
5	1104095	1495.096326156395	0.000980392717
5	1104102	1495.097436653315	0.00111049692
5	1104121	1495.123016385501	0.865187693166
5	1104136	1495.131153564635	2.52816893673
5	1104143	1495.172609118357	4.9970164015
5	1104150	1495.175493073061	0.875615473664
5	1104153	1495.175833696898	0.000340623837
5	1104180	1495.265863535133	1.658480554917
5	1104211	1495.296431455427	7.207815414636
5	1104214	1495.296648718919	0.000217263492
5	1104233	1495.340272548457	0.924144068104
5	1104240	1495.359683976298	0.895743329789
5	1104255	1495.365993734433	0.006309758135
5	1104284	1495.448236476316	0.943231788621
5	1104293	1495.452073115315	1.761199969314
5	1104296	1495.453270116898	0.001197001583
5	1104307	1495.463422849988	4.330606269433
5	1104314	1495.466950046476	2.555235388965
5	1104345	1495.495828719463	1.742941098962
5	1104364	1495.526655364787	4.303660286495
5	1104367	1495.526675704231	2.0339444e-05
5	1104382	1495.551931117766	5.090650973243
5	1104389	1495.556296359415	1.75767898788
5	1104628	1495.895455213177	0.772438827676
5	1104671	1495.983982425486	5.088341437299
5	1104690	1495.997625717917	4.183552849208
5	1104700	1496.000976772573	5.782355319105
5	1104705	1496.008391598139	0.007414825566
5	1104762	1496.048592221951	0.040200623812
5	1104833	1496.127271006085	0.663848156097
5	1104838	1496.128631446818	0.001360440733
5	1104847	1496.136799326589	2.391402313318
5	1104888	1496.163334963707	3.208472187182
5	1104965	1496.227600394948	2.372296609121
5	1104980	1496.230067943431	2.386524237582
5	1104999	1496.271448110784	4.971189109103
5	1105034	1496.305330377304	1.509455334293
5	1105037	1496.307431692067	0.002101314763
5	1105052	1496.318996314544	3.115231609424
5	1105161	1496.506592784505	4.821683223389
5	1105170	1496.528831610027	7.260355730018
5	1105173	1496.529001915482	0.000170305455
5	1105196	1496.570309422409	1.439155857774
5	1105207	1496.579686399796	0.684231186619
5	1105210	1496.579755139579	6.8739783e-05
5	1105277	1496.705171062299	1.364898513842
5	1105308	1496.728016689162	3.97277608692
5	1105311	1496.728262445656	0.000245756494
5	1105314	1496.728716902017	0.000454456361
5	1105325	1496.74295599015	0.014239088133
5	1105336	1496.765468253194	1.468819534275
5	1105407	1496.830297291392	0.666962327685
5	1105424	1496.851198861939	3.087411640881
5	1105435	1496.858407399785	1.306476282019
5	1105440	1496.863225441509	0.01202657957
5	1105455	1496.873675485878	3.771162318219
5	1105470	1496.879284089341	0.005608603463
5	1105473	1496.879295086112	1.0996771e-05
5	1105504	1496.914005008521	3.763324804934
5	1105525	1496.993284334319	3.057534467677
5	1105532	1496.996536778191	0.003252443872
5	1105588	1497.19885282112	3.122898883569
5	1105653	1497.311729530672	2.214292877357
5	1105662	1497.316043614338	2.317841184584
5	1105675	1497.321332423485	3.067855654325
5	1105704	1497.361934247661	0.782179108082
5	1105743	1497.434961890093	1.437336172176
5	1105758	1497.456029378775	3.885323596085
5	1105785	1497.515972857689	0.773016867539
5	1105844	1497.616655638904	2.120826919441
5	1105883	1497.717183255925	1.489582860977
5	1105886	1497.717536537274	0.000353281349
5	1105937	1497.856229016888	0.859692238697
5	1105942	1497.85844399341	0.002214976522
5	1105947	1497.859787730394	0.001343736984
5	1105990	1497.920559263716	3.035380918544
5	1106017	1497.954426901399	2.985619190236
5	1106028	1497.963856812679	0.00942991128
5	1106086	1498.017813903749	3.840325115509
5	1106117	1498.027731785084	0.711688170746
5	1106144	1498.058430736659	1.48812131425
5	1106171	1498.082760413831	0.024329677172
5	1106230	1498.202407373608	0.746377994833
5	1106259	1498.252820109136	1.487351855942
5	1106272	1498.258232995871	2.20964077392
5	1106339	1498.340196366466	2.211564919648
5	1106354	1498.357867285915	2.831191581684
5	1106369	1498.36972656639	0.753070927486
5	1106372	1498.370413470004	0.000686903614
5	1106375	1498.371020307761	0.000606837757
5	1106378	1498.372786002698	0.001765694937
5	1106409	1498.404368588146	1.541143146637
5	1106424	1498.421423888109	2.191355944678
5	1106427	1498.422069331112	0.000645443003
5	1106438	1498.426985150497	0.709448613223
5	1106445	1498.436059725292	0.009074574795
5	1106516	1498.560536578323	2.241540263779
5	1106519	1498.560977566125	0.000440987802
5	1106522	1498.561584830116	0.000607263991
5	1106533	1498.564940416108	4.536008603743
5	1106588	1498.616929598903	4.524097902414
5	1106591	1498.617491660155	0.000562061252
5	1106606	1498.630220495757	4.505149095361
5	1106609	1498.632099209786	0.001878714029
5	1106622	1498.636701564843	4.506933187124
5	1106671	1498.719764477729	0.70195057398
5	1106698	1498.766586388539	3.593977270182
5	1106715	1498.773040469967	0.006454081428
5	1106748	1498.831981136041	6.206235120799
5	1106791	1498.98283309964	0.730012990504
5	1106806	1498.989915046623	0.731682050752
5	1106820	1499.012951399537	4.516756896893
5	1106875	1499.104702953832	0.764506587366
5	1106878	1499.104836411209	0.000133457377
5	1106885	1499.113205647518	0.008369236309
5	1106900	1499.143678066855	3.006878740266
5	1106911	1499.149283942045	0.00560587519
5	1106934	1499.177724800602	8.739490315682
5	1106965	1499.196787350393	0.792418762247
5	1106984	1499.224412141739	0.802342810627
5	1107007	1499.236955643553	0.012543501814
5	1107010	1499.237570726699	0.000615083146
5	1107029	1499.248996234155	0.011425507456
5	1107050	1499.260690985211	5.362331474826
5	1107055	1499.263177306337	0.002486321126
5	1107074	1499.296433091377	3.024984980593
5	1107079	1499.304041975209	0.007608883832
5	1107088	1499.314327387953	2.400322379432
5	1107091	1499.314494619576	0.000167231623
5	1107094	1499.315520065841	0.001025446265
5	1107121	1499.340947876629	1.481160146235
5	1107124	1499.342546596224	0.001598719595
5	1107127	1499.342668662615	0.000122066391
5	1107136	1499.344557516515	0.782972686399
5	1107141	1499.346066104832	0.001508588317
5	1107168	1499.365210483482	6.983603236275
5	1107193	1499.378266954048	5.327117616932
5	1107196	1499.378523589248	1.457964325532
5	1107209	1499.386138968017	0.007615378769
5	1107212	1499.386190184494	5.1216477e-05
5	1107215	1499.386974407256	0.000784222762
5	1107228	1499.400253115966	2.201400294846
5	1107237	1499.418713146888	0.786613937102
5	1107276	1499.450209592825	2.921207677343
5	1107283	1499.451883362279	1.424151577195
5	1107294	1499.460252586967	0.740488109238
5	1107301	1499.464681767855	0.004429180888
5	1107334	1499.519942579472	2.158008331811
5	1107351	1499.528969642425	4.353135945527
5	1107374	1499.625755309735	0.793774173694
5	1107377	1499.62600202734	0.000246717605
5	1107384	1499.659441542579	2.224479652486
5	1107387	1499.660327146394	0.000885603815
5	1107410	1499.682032356974	0.692117310351
5	1107433	1499.691201088279	5.222688282161
5	1107468	1499.716922022069	0.703970622532
5	1107503	1499.798470133071	0.685264485553
5	1107510	1499.802259615162	0.003789482091
5	1107517	1499.807477239044	0.658193296999
5	1107524	1499.811129536511	0.003652297467
5	1107535	1499.848164372987	1.490297087072
5	1107566	1499.891483108426	0.713758307824

