version 2
run scenario1-4-20211222-17:37:06-12112
attr configname scenario1
attr datetime 20211222-17:37:06
attr experiment scenario1
attr inifile omnetpp.ini
attr iterationvars ""
attr iterationvarsf ""
attr measurement ""
attr network Network
attr processid 12112
attr repetition 4
attr replication #4
attr resultdir results
attr runnumber 4
attr seedset 4
param **.server.p1 0.2
param **.server.p2 0.385
param **.clients.num_clients 60
param **.processor.service_rate 1000
param **.disk.service_rate 300
param **.webServer.serv_rate_w 80
param **.clients.timeWindow 5s

vector 0 Network.clients pkt_counter:vector ETV
attr source pkt_counter_s
vector 1 Network.server.processor processor_backlog:vector ETV
attr source processor_backlog_s
vector 2 Network.server.disk disk_backlog:vector ETV
attr source disk_backlog_s
vector 3 Network.webServer wserver_backlog:vector ETV
attr source wserver_backlog_s
vector 4 Network.clients interarrival_time:vector ETV
attr source interarrival_time_s
vector 5 Network.clients response_time:vector ETV
attr source response_time_s
4	370584	500.00974239341	0.019424254033
4	370587	500.013160118474	0.003417725064
4	370590	500.01377620422	0.000616085746
4	370593	500.014162664238	0.000386460018
4	370640	500.10754146477	0.093378800532
4	370679	500.157552479986	0.050011015216
4	370734	500.179287615378	0.021735135392
4	370777	500.216925229073	0.037637613695
4	370816	500.317108642834	0.100183413761
4	370835	500.344814069048	0.027705426214
4	370846	500.373242644896	0.028428575848
4	370849	500.373280862853	3.8217957e-05
4	370856	500.391853084867	0.018572222014
4	370871	500.422935746355	0.031082661488
4	370890	500.454107989661	0.031172243306
4	370893	500.45542165303	0.001313663369
4	370906	500.462595231501	0.007173578471
4	370909	500.464784390936	0.002189159435
4	370970	500.506366416217	0.041582025281
4	370989	500.532175290878	0.025808874661
4	371024	500.614755690906	0.082580400028
4	371045	500.629449856448	0.014694165542
4	371062	500.679047148524	0.049597292076
4	371077	500.690546139462	0.011498990938
4	371080	500.693141478353	0.002595338891
4	371091	500.729483910634	0.036342432281
4	371098	500.742904853624	0.01342094299
4	371101	500.743086422669	0.000181569045
4	371124	500.760361021047	0.017274598378
4	371131	500.766996710856	0.006635689809
4	371134	500.768162585334	0.001165874478
4	371139	500.76966581695	0.001503231616
4	371196	500.878099080741	0.108433263791
4	371199	500.878789900868	0.000690820127
4	371202	500.878935564833	0.000145663965
4	371213	500.89891406446	0.019978499627
4	371232	500.912769252054	0.013855187594
4	371239	500.916927311973	0.004158059919
4	371316	500.972533111503	0.05560579953
4	371331	500.977610033927	0.005076922424
4	371352	500.991128836591	0.013518802664
4	371367	500.996987143401	0.00585830681
4	371400	501.010350175314	0.013363031913
4	371411	501.040978092962	0.030627917648
4	371442	501.070688322754	0.029710229792
4	371477	501.087103285621	0.016414962867
4	371480	501.088977551407	0.001874265786
4	371519	501.201020797994	0.112043246587
4	371530	501.223110171476	0.022089373482
4	371573	501.321045538581	0.097935367105
4	371576	501.32136608774	0.000320549159
4	371595	501.335718077109	0.014351989369
4	371646	501.395034755554	0.059316678445
4	371675	501.422954763363	0.027920007809
4	371688	501.4360067339	0.013051970537
4	371695	501.441580990083	0.005574256183
4	371706	501.444257926452	0.002676936369
4	371713	501.446124931345	0.001867004893
4	371724	501.453895992676	0.007771061331
4	371791	501.580691182274	0.126795189598
4	371796	501.580881205358	0.000190023084
4	371801	501.583065118463	0.002183913105
4	371812	501.596772452389	0.013707333926
4	371847	501.649445727681	0.052673275292
4	371882	501.718507992416	0.069062264735
4	371905	501.781351836721	0.062843844305
4	371940	501.878207130721	0.096855294
4	371947	501.892094113007	0.013886982286
4	371954	501.8945820079	0.002487894893
4	372001	501.982327374658	0.087745366758
4	372004	501.98268544306	0.000358068402
4	372046	502.077943106916	0.095257663856
4	372121	502.133188660932	0.055245554016
4	372160	502.159166074472	0.02597741354
4	372163	502.159848563312	0.00068248884
4	372170	502.165418257093	0.005569693781
4	372189	502.196717740443	0.03129948335
4	372260	502.28716668314	0.090448942697
4	372263	502.288236945543	0.001070262403
4	372266	502.288519448562	0.000282503019
4	372285	502.299340915735	0.010821467173
4	372290	502.300387445471	0.001046529736
4	372311	502.304544540235	0.004157094764
4	372314	502.304614258469	6.9718234e-05
4	372339	502.321187550417	0.016573291948
4	372358	502.336789173368	0.015601622951
4	372363	502.337763645576	0.000974472208
4	372368	502.33869465812	0.000931012544
4	372389	502.344170322473	0.005475664353
4	372394	502.34534466739	0.001174344917
4	372411	502.350517894101	0.005173226711
4	372428	502.387304261943	0.036786367842
4	372441	502.395871760698	0.008567498755
4	372452	502.40393452026	0.008062759562
4	372477	502.431208236318	0.027273716058
4	372542	502.505855631297	0.074647394979
4	372565	502.525512027248	0.019656395951
4	372572	502.530993164846	0.005481137598
4	372579	502.541088241067	0.010095076221
4	372600	502.553170145014	0.012081903947
4	372603	502.553250211854	8.006684e-05
4	372624	502.564015686276	0.010765474422
4	372631	502.566973977054	0.002958290778
4	372646	502.631099481889	0.064125504835
4	372661	502.648765537606	0.017666055717
4	372664	502.649091099595	0.000325561989
4	372703	502.708901248544	0.059810148949
4	372714	502.713412112034	0.00451086349
4	372725	502.747321021778	0.033908909744
4	372740	502.773458923294	0.026137901516
4	372767	502.819881914129	0.046422990835
4	372778	502.831033284183	0.011151370054
4	372793	502.847715194464	0.016681910281
4	372800	502.849444965451	0.001729770987
4	372807	502.852457211942	0.003012246491
4	372850	502.926816649887	0.074359437945
4	372861	502.940726070391	0.013909420504
4	372864	502.941755088259	0.001029017868
4	372867	502.941969849084	0.000214760825
4	372878	502.954593834059	0.012623984975
4	372881	502.95757432833	0.002980494271
4	372919	503.034030983389	0.076456655059
4	372934	503.043752435397	0.009721452008
4	372945	503.098029123722	0.054276688325
4	372968	503.110940513763	0.012911390041
4	372975	503.111090516711	0.000150002948
4	372982	503.112396562885	0.001306046174
4	372989	503.116387675958	0.003991113073
4	373016	503.129510504161	0.013122828203
4	373067	503.212166045251	0.08265554109
4	373074	503.252001929932	0.039835884681
4	373109	503.322610863543	0.070608933611
4	373112	503.323622701364	0.001011837821
4	373115	503.324911278484	0.00128857712
4	373118	503.32521426967	0.000302991186
4	373133	503.335777886347	0.010563616677
4	373168	503.427956698186	0.092178811839
4	373171	503.428265366349	0.000308668163
4	373190	503.447758790937	0.019493424588
4	373201	503.455855213772	0.008096422835
4	373238	503.484012804852	0.02815759108
4	373263	503.541188065339	0.057175260487
4	373298	503.58361614102	0.042428075681
4	373301	503.584050430409	0.000434289389
4	373304	503.584146936118	9.6505709e-05
4	373333	503.621248878197	0.037101942079
4	373352	503.636555622378	0.015306744181
4	373433	503.810459599703	0.173903977325
4	373480	503.911635730738	0.101176131035
4	373485	503.914895720696	0.003259989958
4	373494	503.916203945412	0.001308224716
4	373513	503.924537727331	0.008333781919
4	373516	503.925783048803	0.001245321472
4	373542	504.009281008102	0.083497959299
4	373545	504.009294249163	1.3241061e-05
4	373548	504.009479025734	0.000184776571
4	373611	504.158891916818	0.149412891084
4	373626	504.177261971338	0.01837005452
4	373637	504.195106964017	0.017844992679
4	373640	504.197186450416	0.002079486399
4	373651	504.282929949729	0.085743499313
4	373670	504.301279471411	0.018349521682
4	373705	504.329600922647	0.028321451236
4	373720	504.336983616513	0.007382693866
4	373731	504.348568085785	0.011584469272
4	373782	504.462975799205	0.11440771342
4	373791	504.468212129091	0.005236329886
4	373820	504.49367203684	0.025459907749
4	373823	504.494389600201	0.000717563361
4	373850	504.514161685804	0.019772085603
4	373853	504.515166121871	0.001004436067
4	373864	504.574735418544	0.059569296673
4	373915	504.62881240073	0.054076982186
4	373978	504.773418404216	0.144606003486
4	374017	504.805608763694	0.032190359478
4	374024	504.808253942701	0.002645179007
4	374027	504.808373238617	0.000119295916
4	374046	504.854787180108	0.046413941491
4	374121	505.005228891202	0.150441711094
4	374136	505.059413815074	0.054184923872
4	374143	505.061225168694	0.00181135362
4	374146	505.061508379657	0.000283210963
4	374211	505.126895518973	0.065387139316
4	374232	505.146380693254	0.019485174281
4	374241	505.148781754528	0.002401061274
4	374250	505.155475390488	0.00669363596
4	374257	505.162298015926	0.006822625438
4	374312	505.28172045239	0.119422436464
4	374379	505.385453146052	0.103732693662
4	374394	505.397116308843	0.011663162791
4	374405	505.402764028511	0.005647719668
4	374444	505.45244698984	0.049682961329
4	374451	505.458531608193	0.006084618353
4	374462	505.467263341891	0.008731733698
4	374477	505.479105747332	0.011842405441
4	374492	505.495222748436	0.016117001104
4	374549	505.575047675081	0.079824926645
4	374562	505.585211959787	0.010164284706
4	374569	505.588429524264	0.003217564477
4	374576	505.596603550327	0.008174026063
4	374579	505.596954558823	0.000351008496
4	374622	505.751332516446	0.154377957623
4	374697	505.875774778723	0.124442262277
4	374720	505.921517155132	0.045742376409
4	374731	505.930440285734	0.008923130602
4	374766	505.975419431909	0.044979146175
4	374777	505.979202955369	0.00378352346
4	374805	506.00035839526	0.021155439891
4	374826	506.042473841096	0.042115445836
4	374841	506.089392182283	0.046918341187
4	374872	506.16260583428	0.073213651997
4	374899	506.201541803882	0.038935969602
4	374954	506.259458655766	0.057916851884
4	374973	506.268155366618	0.008696710852
4	375020	506.399514940622	0.131359574004
4	375027	506.402485159508	0.002970218886
4	375060	506.46399098429	0.061505824782
4	375089	506.476306499014	0.012315514724
4	375106	506.491772476954	0.01546597794
4	375109	506.491800080178	2.7603224e-05
4	375118	506.49299877017	0.001198689992
4	375133	506.525258287547	0.032259517377
4	375136	506.526314923848	0.001056636301
4	375163	506.576324367985	0.050009444137
4	375166	506.578738619873	0.002414251888
4	375193	506.624910345112	0.046171725239
4	375216	506.707448256213	0.082537911101
4	375219	506.707826558756	0.000378302543
4	375258	506.740959590552	0.033133031796
4	375265	506.743106051398	0.002146460846
4	375340	506.959367244502	0.216261193104
4	375351	506.964797128308	0.005429883806
4	375370	506.985050333522	0.020253205214
4	375393	506.994609184128	0.009558850606
4	375396	506.995343418412	0.000734234284
4	375409	506.998556654006	0.003213235594
4	375461	507.066363748355	0.067807094349
4	375476	507.072843858258	0.006480109903
4	375491	507.131572330892	0.058728472634
4	375494	507.132977234939	0.001404904047
4	375521	507.201118382553	0.068141147614
4	375540	507.21732876371	0.016210381157
4	375543	507.217886398112	0.000557634402
4	375546	507.218280503625	0.000394105513
4	375585	507.256661402292	0.038380898667
4	375588	507.256783571876	0.000122169584
4	375591	507.257309598013	0.000526026137
4	375602	507.341886732167	0.084577134154
4	375609	507.343597990081	0.001711257914
4	375660	507.374650843172	0.031052853091
4	375669	507.38757606557	0.012925222398
4	375678	507.399791161063	0.012215095493
4	375693	507.424147898944	0.024356737881
4	375752	507.521151226009	0.097003327065
4	375759	507.527803501096	0.006652275087
4	375786	507.588782554348	0.060979053252
4	375805	507.608067732484	0.019285178136
4	375808	507.608210214055	0.000142481571
4	375815	507.610698376556	0.002488162501
4	375842	507.655614905781	0.044916529225
4	375845	507.656974714956	0.001359809175
4	375872	507.682042423981	0.025067709025
4	375877	507.682383105373	0.000340681392
4	375922	507.74718899644	0.064805891067
4	375953	507.785083334074	0.037894337634
4	375956	507.78523114297	0.000147808896
4	375959	507.787488796268	0.002257653298
4	375982	507.8176102292	0.030121432932
4	376005	507.832467486078	0.014857256878
4	376020	507.853285279866	0.020817793788
4	376047	507.89313006695	0.039844787084
4	376072	507.959476201055	0.066346134105
4	376081	507.96064795948	0.001171758425
4	376108	507.980076196602	0.019428237122
4	376111	507.980180948585	0.000104751983
4	376118	507.988733373537	0.008552424952
4	376137	507.999776001716	0.011042628179
4	376140	507.999941241234	0.000165239518
4	376148	508.001172102575	0.001230861341
4	376151	508.001206545414	3.4442839e-05
4	376156	508.002264944466	0.001058399052
4	376219	508.052935364622	0.050670420156
4	376230	508.071757679453	0.018822314831
4	376249	508.100707865755	0.028950186302
4	376356	508.230544113851	0.129836248096
4	376383	508.267771197106	0.037227083255
4	376408	508.281296796051	0.013525598945
4	376441	508.303713250832	0.022416454781
4	376444	508.304010517396	0.000297266564
4	376455	508.307049301598	0.003038784202
4	376458	508.307208822714	0.000159521116
4	376465	508.311460976774	0.00425215406
4	376508	508.348370074716	0.036909097942
4	376519	508.379383253433	0.031013178717
4	376522	508.37992010084	0.000536847407
4	376525	508.380159319575	0.000239218735
4	376556	508.434444062813	0.054284743238
4	376559	508.434666014598	0.000221951785
4	376572	508.440231879715	0.005565865117
4	376653	508.506593591789	0.066361712074
4	376658	508.507332954009	0.00073936222
4	376667	508.511332864111	0.003999910102
4	376674	508.512315643881	0.00098277977
4	376677	508.512967026689	0.000651382808
4	376696	508.51765435	0.004687323311
4	376723	508.532674602271	0.015020252271
4	376744	508.547647259729	0.014972657458
4	376747	508.549173532288	0.001526272559
4	376750	508.549407323947	0.000233791659
4	376783	508.646971749657	0.09756442571
4	376834	508.677376725795	0.030404976138
4	376841	508.70936005334	0.031983327545
4	376852	508.710862545854	0.001502492514
4	376867	508.728307894706	0.017445348852
4	376890	508.776062454316	0.04775455961
4	376933	508.809790050522	0.033727596206
4	376944	508.816277219454	0.006487168932
4	376947	508.817333901042	0.001056681588
4	376962	508.833687289265	0.016353388223
4	376993	508.845450501421	0.011763212156
4	377016	508.85516967868	0.009719177259
4	377021	508.857073770084	0.001904091404
4	377024	508.857215515621	0.000141745537
4	377039	508.861957578028	0.004742062407
4	377042	508.863019794989	0.001062216961
4	377047	508.866118317081	0.003098522092
4	377094	508.919699077433	0.053580760352
4	377101	508.957728622533	0.0380295451
4	377104	508.959695492406	0.001966869873
4	377115	508.969927661616	0.01023216921
4	377122	508.978452326555	0.008524664939
4	377152	509.018362641105	0.03991031455
4	377223	509.128376417545	0.11001377644
4	377228	509.129469711986	0.001093294441
4	377235	509.133443735478	0.003974023492
4	377244	509.137605862505	0.004162127027
4	377251	509.141227698792	0.003621836287
4	377254	509.147121050682	0.00589335189
4	377263	509.149960978718	0.002839928036
4	377276	509.154200796769	0.004239818051
4	377291	509.160647567025	0.006446770256
4	377294	509.160841866098	0.000194299073
4	377297	509.163445890436	0.002604024338
4	377332	509.193268544117	0.029822653681
4	377347	509.213120912645	0.019852368528
4	377378	509.241840377331	0.028719464686
4	377385	509.256936926725	0.015096549394
4	377408	509.326811600829	0.069874674104
4	377425	509.332538772051	0.005727171222
4	377430	509.334582784903	0.002044012852
4	377449	509.393841540083	0.05925875518
4	377464	509.399603173961	0.005761633878
4	377469	509.400735112842	0.001131938881
4	377508	509.427331524844	0.026596412002
4	377511	509.428445114766	0.001113589922
4	377516	509.430553779185	0.002108664419
4	377543	509.450783819816	0.020230040631
4	377556	509.461313953308	0.010530133492
4	377561	509.463207198375	0.001893245067
4	377588	509.514206299943	0.050999101568
4	377597	509.516632164954	0.002425865011
4	377602	509.517453295015	0.000821130061
4	377613	509.540352090528	0.022898795513
4	377632	509.583254636181	0.042902545653
4	377649	509.612978747038	0.029724110857
4	377692	509.686545277735	0.073566530697
4	377701	509.689769235416	0.003223957681
4	377752	509.828929711272	0.139160475856
4	377773	509.928217824871	0.099288113599
4	377788	509.937543797222	0.009325972351
4	377791	509.937658879825	0.000115082603
4	377794	509.938620890867	0.000962011042
4	377807	509.982327283579	0.043706392712
4	377846	510.006076590977	0.023749307398
4	377859	510.013855033438	0.007778442461
4	377872	510.022096523215	0.008241489777
4	377877	510.023848088334	0.001751565119
4	377926	510.063051719409	0.039203631075
4	377933	510.068739208571	0.005687489162
4	377936	510.069971327064	0.001232118493
4	378021	510.29557576345	0.225604436386
4	378074	510.43702261478	0.14144685133
4	378077	510.43781558108	0.0007929663
4	378092	510.496867351693	0.059051770613
4	378107	510.502810132565	0.005942780872
4	378110	510.503662249057	0.000852116492
4	378117	510.507700317794	0.004038068737
4	378120	510.508286664356	0.000586346562
4	378141	510.524677976376	0.01639131202
4	378146	510.525261854561	0.000583878185
4	378189	510.621374315493	0.096112460932
4	378200	510.631479371785	0.010105056292
4	378243	510.669932627449	0.038453255664
4	378274	510.70851231844	0.038579690991
4	378301	510.785367411356	0.076855092916
4	378312	510.792867153445	0.007499742089
4	378323	510.821877826196	0.029010672751
4	378362	510.883244144029	0.061366317833
4	378373	510.89501555803	0.011771414001
4	378408	510.949187642506	0.054172084476
4	378445	511.055289046552	0.106101404046
4	378448	511.055841775191	0.000552728639
4	378459	511.064897457697	0.009055682506
4	378462	511.065786981442	0.000889523745
4	378469	511.0887829592	0.022995977758
4	378484	511.101652132342	0.012869173142
4	378527	511.193199302781	0.091547170439
4	378578	511.254020475093	0.060821172312
4	378585	511.255883502127	0.001863027034
4	378600	511.261959703026	0.006076200899
4	378603	511.262734114067	0.000774411041
4	378622	511.281058022193	0.018323908126
4	378645	511.354941005848	0.073882983655
4	378672	511.394493988523	0.039552982675
4	378683	511.398783905773	0.00428991725
4	378698	511.413118527525	0.014334621752
4	378705	511.416897667032	0.003779139507
4	378738	511.467061223211	0.050163556179
4	378741	511.467961866833	0.000900643622
4	378756	511.47510011881	0.007138251977
4	378759	511.475163655857	6.3537047e-05
4	378808	511.554285664339	0.079122008482
4	378815	511.557837311568	0.003551647229
4	378818	511.557942201551	0.000104889983
4	378835	511.570550732655	0.012608531104
4	378864	511.597877643438	0.027326910783
4	378895	511.626669250924	0.028791607486
4	378910	511.631476198424	0.0048069475
4	378913	511.631535399152	5.9200728e-05
4	378948	511.653953342251	0.022417943099
4	378955	511.654897286768	0.000943944517
4	378958	511.656130715258	0.00123342849
4	378965	511.657451215532	0.001320500274
4	378972	511.68126456957	0.023813354038
4	378987	511.688211975343	0.006947405773
4	378990	511.689640175637	0.001428200294
4	379015	511.700258572518	0.010618396881
4	379020	511.702716977302	0.002458404784
4	379023	511.703275765499	0.000558788197
4	379036	511.720396839905	0.017121074406
4	379105	511.774356137378	0.053959297473
4	379116	511.782002715279	0.007646577901
4	379123	511.787847345096	0.005844629817
4	379194	511.871080617957	0.083233272861
4	379199	511.87273991556	0.001659297603
4	379264	511.962901535622	0.090161620062
4	379283	511.98876929616	0.025867760538
4	379337	512.017709138353	0.028939842193
4	379344	512.021542136359	0.003832998006
4	379369	512.047341365256	0.025799228897
4	379386	512.059784568307	0.012443203051
4	379409	512.180267188681	0.120482620374
4	379418	512.185004389477	0.004737200796
4	379459	512.274070202524	0.089065813047
4	379470	512.2912991852	0.017228982676
4	379481	512.296609741396	0.005310556196
4	379500	512.313612079776	0.01700233838
4	379507	512.331075196828	0.017463117052
4	379534	512.38422696479	0.053151767962
4	379551	512.395595319316	0.011368354526
4	379624	512.489262209188	0.093666889872
4	379631	512.49319483764	0.003932628452
4	379654	512.540085073122	0.046890235482
4	379669	512.557858089258	0.017773016136
4	379676	512.56625325334	0.008395164082
4	379687	512.572208709863	0.005955456523
4	379698	512.58291429327	0.010705583407
4	379733	512.609482054432	0.026567761162
4	379736	512.610593020915	0.001110966483
4	379767	512.643024270678	0.032431249763
4	379774	512.647040002796	0.004015732118
4	379793	512.658483957917	0.011443955121
4	379798	512.660276571963	0.001792614046
4	379847	512.761950812963	0.101674241
4	379874	512.781570448113	0.01961963515
4	379901	512.793747171923	0.01217672381
4	379914	512.798368610338	0.004621438415
4	379919	512.798880548806	0.000511938468
4	379926	512.819535349245	0.020654800439
4	379937	512.827080338217	0.007544988972
4	379948	512.867998455486	0.040918117269
4	379983	512.922758851682	0.054760396196
4	379994	512.93847845637	0.015719604688
4	379997	512.941070580472	0.002592124102
4	380012	512.976986539306	0.035915958834
4	380015	512.978102667274	0.001116127968
4	380018	512.979959024352	0.001856357078
4	380029	512.987249093099	0.007290068747
4	380039	513.022279811699	0.0350307186
4	380094	513.116595907496	0.094316095797
4	380147	513.177264502701	0.060668595205
4	380156	513.183909492797	0.006644990096
4	380163	513.186366572232	0.002457079435
4	380172	513.194993070378	0.008626498146
4	380191	513.205156897046	0.010163826668
4	380194	513.205523917551	0.000367020505
4	380199	513.207040993297	0.001517075746
4	380206	513.209222776554	0.002181783257
4	380257	513.260952253833	0.051729477279
4	380260	513.262042827378	0.001090573545
4	380337	513.362453265905	0.100410438527
4	380342	513.363098640035	0.00064537413
4	380349	513.364972352798	0.001873712763
4	380360	513.378572085648	0.01359973285
4	380363	513.379845587798	0.00127350215
4	380402	513.414788843079	0.034943255281
4	380457	513.499269382534	0.084480539455
4	380508	513.593772742776	0.094503360242
4	380523	513.648488740865	0.054715998089
4	380526	513.648861644897	0.000372904032
4	380545	513.65988728932	0.011025644423
4	380556	513.664310660075	0.004423370755
4	380595	513.683035205444	0.018724545369
4	380626	513.726774627988	0.043739422544
4	380629	513.728731132165	0.001956504177
4	380638	513.730355324524	0.001624192359
4	380643	513.732158230238	0.001802905714
4	380666	513.746373406976	0.014215176738
4	380689	513.843098536045	0.096725129069
4	380706	513.848272384793	0.005173848748
4	380719	513.852280131796	0.004007747003
4	380730	513.858827631024	0.006547499228
4	380737	513.861754100865	0.002926469841
4	380740	513.862431239023	0.000677138158
4	380787	513.931154755045	0.068723516022
4	380794	513.933895248623	0.002740493578
4	380856	514.007646115102	0.073750866479
4	380865	514.010830250097	0.003184134995
4	380874	514.016940836926	0.006110586829
4	380925	514.085321191889	0.068380354963
4	380968	514.139637917205	0.054316725316
4	380983	514.179656886327	0.040018969122
4	381002	514.218254143241	0.038597256914
4	381021	514.225851879695	0.007597736454
4	381024	514.225973863107	0.000121983412
4	381055	514.321752605546	0.095778742439
4	381106	514.378691879525	0.056939273979
4	381129	514.421207374096	0.042515494571
4	381132	514.422060430687	0.000853056591
4	381155	514.44163474586	0.019574315173
4	381170	514.452693534597	0.011058788737
4	381189	514.487271111378	0.034577576781
4	381200	514.500141922591	0.012870811213
4	381211	514.504168947264	0.004027024673
4	381266	514.582703447721	0.078534500457
4	381277	514.586552143394	0.003848695673
4	381308	514.638161147615	0.051609004221
4	381335	514.69366783883	0.055506691215
4	381374	514.711235249474	0.017567410644
4	381377	514.716044452842	0.004809203368
4	381382	514.71752913841	0.001484685568
4	381399	514.727232805111	0.009703666701
4	381414	514.739471466289	0.012238661178
4	381449	514.767235695652	0.027764229363
4	381480	514.86160370789	0.094368012238
4	381483	514.862062724571	0.000459016681
4	381486	514.862231373247	0.000168648676
4	381541	514.970343290417	0.10811191717
4	381578	514.985669910714	0.015326620297
4	381585	514.989984794544	0.00431488383
4	381592	514.992389032521	0.002404237977
4	381595	514.992933189253	0.000544156732
4	381652	515.034739590556	0.041806401303
4	381681	515.061521883395	0.026782292839
4	381686	515.061791157838	0.000269274443
4	381693	515.066173586666	0.004382428828
4	381696	515.066387960933	0.000214374267
4	381755	515.203499189156	0.137111228223
4	381838	515.329399491549	0.125900302393
4	381853	515.395162486173	0.065762994624
4	381876	515.415948896117	0.020786409944
4	381899	515.433413648496	0.017464752379
4	381934	515.45743417069	0.024020522194
4	381961	515.506523480757	0.049089310067
4	381992	515.53226161778	0.025738137023
4	382049	515.646118481549	0.113856863769
4	382066	515.662912144086	0.016793662537
4	382087	515.692282103323	0.029369959237
4	382094	515.695944497382	0.003662394059
4	382099	515.696948603915	0.001004106533
4	382108	515.701021734984	0.004073131069
4	382191	515.768936767594	0.06791503261
4	382194	515.76900035006	6.3582466e-05
4	382203	515.774323292236	0.005322942176
4	382230	515.790719960174	0.016396667938
4	382237	515.79303794852	0.002317988346
4	382244	515.796543843462	0.003505894942
4	382265	515.819112197744	0.022568354282
4	382276	515.824575915847	0.005463718103
4	382368	516.018814540997	0.19423862515
4	382373	516.021039939349	0.002225398352
4	382378	516.023076510947	0.002036571598
4	382397	516.032920393062	0.009843882115
4	382404	516.033551044814	0.000630651752
4	382461	516.065727535744	0.03217649093
4	382466	516.067365788905	0.001638253161
4	382485	516.123862463651	0.056496674746
4	382488	516.125911025123	0.002048561472
4	382519	516.188388799772	0.062477774649
4	382530	516.196572436722	0.00818363695
4	382541	516.291454901727	0.094882465005
4	382616	516.396951553242	0.105496651515
4	382619	516.397844170778	0.000892617536
4	382626	516.408297300498	0.01045312972
4	382641	516.424707701543	0.016410401045
4	382664	516.481412827181	0.056705125638
4	382667	516.481870382087	0.000457554906
4	382674	516.484325169974	0.002454787887
4	382697	516.509737147663	0.025411977689
4	382708	516.586511116681	0.076773969018
4	382711	516.586623837372	0.000112720691
4	382722	516.606727252044	0.020103414672
4	382745	516.648802329355	0.042075077311
4	382756	516.657683512242	0.008881182887
4	382759	516.657746505934	6.2993692e-05
4	382770	516.676027277692	0.018280771758
4	382781	516.737271845325	0.061244567633
4	382812	516.859543899442	0.122272054117
4	382823	516.86675386681	0.007209967368
4	382834	516.896454402109	0.029700535299
4	382841	516.906208408838	0.009754006729
4	382880	516.970687154832	0.064478745994
4	382887	516.972183072339	0.001495917507
4	382929	517.028340790388	0.056157718049
4	382940	517.051756677372	0.023415886984
4	382947	517.054541273851	0.002784596479
4	382962	517.075324502223	0.020783228372
4	382989	517.208168806314	0.132844304091
4	383000	517.2211518343	0.012983027986
4	383007	517.224736561218	0.003584726918
4	383038	517.251058932149	0.026322370931
4	383053	517.287950038846	0.036891106697
4	383064	517.327618224918	0.039668186072
4	383075	517.341940399901	0.014322174983
4	383086	517.355917353104	0.013976953203
4	383089	517.357692664507	0.001775311403
4	383096	517.388065185133	0.030372520626
4	383127	517.471698560646	0.083633375513
4	383162	517.541127380101	0.069428819455
4	383165	517.541633974269	0.000506594168
4	383168	517.541832985455	0.000199011186
4	383191	517.57601586219	0.034182876735
4	383198	517.580122153798	0.004106291608
4	383213	517.644425122425	0.064302968627
4	383244	517.66651639022	0.022091267795
4	383247	517.666643063174	0.000126672954
4	383280	517.693495037858	0.026851974684
4	383301	517.712022530705	0.018527492847
4	383312	517.739230149773	0.027207619068
4	383315	517.739302472448	7.2322675e-05
4	383326	517.745028652674	0.005726180226
4	383329	517.746403726178	0.001375073504
4	383336	517.748793082443	0.002389356265
4	383363	517.835762815977	0.086969733534
4	383374	517.87849694707	0.042734131093
4	383393	517.889415515982	0.010918568912
4	383410	517.902380169578	0.012964653596
4	383419	517.908570513187	0.006190343609
4	383426	517.922376181767	0.01380566858
4	383508	518.055184276296	0.132808094529
4	383519	518.103552157055	0.048367880759
4	383522	518.105402040385	0.00184988333
4	383533	518.110093574052	0.004691533667
4	383556	518.150764638989	0.040671064937
4	383561	518.151444082257	0.000679443268
4	383586	518.199613149947	0.04816906769
4	383629	518.237459866382	0.037846716435
4	383644	518.272663657849	0.035203791467
4	383651	518.273904202596	0.001240544747
4	383654	518.273905441623	1.239027e-06
4	383677	518.298502309298	0.024596867675
4	383756	518.397000103778	0.09849779448
4	383779	518.418838327489	0.021838223711
4	383782	518.418968897396	0.000130569907
4	383789	518.42099132432	0.002022426924
4	383800	518.434444338488	0.013453014168
4	383827	518.455368534377	0.020924195889
4	383842	518.463341770577	0.0079732362
4	383877	518.51018249455	0.046840723973
4	383896	518.521599036651	0.011416542101
4	383907	518.53032200975	0.008722973099
4	383930	518.545741226327	0.015419216577
4	383937	518.547084592512	0.001343366185
4	383940	518.548024532108	0.000939939596
4	383983	518.668153435558	0.12012890345
4	383986	518.668770851638	0.00061741608
4	384001	518.695362848142	0.026591996504
4	384042	518.748557149171	0.053194301029
4	384047	518.749884705527	0.001327556356
4	384052	518.753945246573	0.004060541046
4	384063	518.758477730783	0.00453248421
4	384070	518.760077438545	0.001599707762
4	384079	518.768636321426	0.008558882881
4	384086	518.775850969461	0.007214648035
4	384131	518.83683808161	0.060987112149
4	384204	518.974931975551	0.138093893941
4	384222	519.007915294006	0.032983318455
4	384233	519.014456657007	0.006541363001
4	384236	519.014806489389	0.000349832382
4	384247	519.016648197722	0.001841708333
4	384262	519.030287124869	0.013638927147
4	384265	519.031098918953	0.000811794084
4	384304	519.074537225139	0.043438306186
4	384307	519.07495881698	0.000421591841
4	384350	519.18397261025	0.10901379327
4	384361	519.202079404609	0.018106794359
4	384382	519.23958732136	0.037507916751
4	384391	519.242779445559	0.003192124199
4	384418	519.263140524561	0.020361079002
4	384421	519.263331279763	0.000190755202
4	384428	519.276941488093	0.01361020833
4	384483	519.345676848804	0.068735360711
4	384490	519.358005626103	0.012328777299
4	384497	519.358521420923	0.00051579482
4	384508	519.365052656678	0.006531235755
4	384561	519.509783651377	0.144730994699
4	384564	519.510094960864	0.000311309487
4	384569	519.510742259428	0.000647298564
4	384580	519.521429874033	0.010687614605
4	384589	519.525139392578	0.003709518545
4	384616	519.54607206235	0.020932669772
4	384633	519.580153922108	0.034081859758
4	384652	519.594431321184	0.014277399076
4	384655	519.595564544718	0.001133223534
4	384672	519.60505235886	0.009487814142
4	384685	519.616624382054	0.011572023194
4	384696	519.651957015713	0.035332633659
4	384715	519.689947918494	0.037990902781
4	384726	519.709953851296	0.020005932802
4	384729	519.710197420061	0.000243568765
4	384744	519.749485532055	0.039288111994
4	384799	519.856538915501	0.107053383446
4	384806	519.863054154301	0.0065152388
4	384841	519.902486965686	0.039432811385
4	384864	519.923049747366	0.02056278168
4	384869	519.925338411618	0.002288664252
4	384886	519.931586855551	0.006248443933
4	384937	520.039302565496	0.107715709945
4	385004	520.129207769249	0.089905203753
4	385011	520.132482238584	0.003274469335
4	385030	520.200450753486	0.067968514902
4	385041	520.210239917423	0.009789163937
4	385064	520.232056608106	0.021816690683
4	385089	520.241651951762	0.009595343656
4	385092	520.241660769609	8.817847e-06
4	385099	520.243573559146	0.001912789537
4	385104	520.244084477256	0.00051091811
4	385123	520.264262935082	0.020178457826
4	385126	520.265720137488	0.001457202406
4	385129	520.266105601569	0.000385464081
4	385140	520.288366326911	0.022260725342
4	385173	520.315182844291	0.02681651738
4	385186	520.328905020747	0.013722176456
4	385189	520.331375793276	0.002470772529
4	385192	520.331534294139	0.000158500863
4	385195	520.331665458358	0.000131164219
4	385230	520.368120582981	0.036455124623
4	385253	520.388698974257	0.020578391276
4	385272	520.411138097751	0.022439123494
4	385277	520.411625163105	0.000487065354
4	385282	520.411830680283	0.000205517178
4	385305	520.435377409827	0.023546729544
4	385350	520.517909944931	0.082532535104
4	385375	520.561097989678	0.043188044747
4	385426	520.598458251347	0.037360261669
4	385481	520.692068997211	0.093610745864
4	385500	520.698948120272	0.006879123061
4	385519	520.731741839237	0.032793718965
4	385534	520.764183393051	0.032441553814
4	385537	520.764426828038	0.000243434987
4	385548	520.776550687758	0.01212385972
4	385551	520.777077599304	0.000526911546
4	385554	520.778998509809	0.001920910505
4	385597	520.888900049605	0.109901539796
4	385604	520.900270561888	0.011370512283
4	385615	520.909049029316	0.008778467428
4	385642	520.921012045256	0.01196301594
4	385669	520.971323569259	0.050311524003
4	385684	520.982293032613	0.010969463354
4	385687	520.982334900537	4.1867924e-05
4	385702	520.997965859925	0.015630959388
4	385711	521.000990703438	0.003024843513
4	385726	521.033355580818	0.03236487738
4	385729	521.033771589719	0.000416008901
4	385736	521.039114183257	0.005342593538
4	385755	521.049919428527	0.01080524527
4	385790	521.090734083869	0.040814655342
4	385801	521.095459514233	0.004725430364
4	385838	521.156403864659	0.060944350426
4	385841	521.157574860166	0.001170995507
4	385854	521.161326361189	0.003751501023
4	385865	521.183827387865	0.022501026676
4	385880	521.212773561811	0.028946173946
4	385893	521.232843582307	0.020070020496
4	385898	521.234275352717	0.00143177041
4	385913	521.23802347406	0.003748121343
4	385928	521.245022269839	0.006998795779
4	385931	521.246414845404	0.001392575565
4	385956	521.273177999203	0.026763153799
4	385961	521.274978411475	0.001800412272
4	385982	521.28504754115	0.010069129675
4	386003	521.314100611111	0.029053069961
4	386070	521.38332227046	0.069221659349
4	386129	521.550778267578	0.167455997118
4	386180	521.59182807531	0.041049807732
4	386193	521.599509576793	0.007681501483
4	386206	521.603094197532	0.003584620739
4	386209	521.603375569373	0.000281371841
4	386226	521.616791899963	0.01341633059
4	386239	521.61964842479	0.002856524827
4	386270	521.656319840253	0.036671415463
4	386277	521.662506491004	0.006186650751
4	386296	521.670760950061	0.008254459057
4	386303	521.687802380827	0.017041430766
4	386342	521.71556054247	0.027758161643
4	386349	521.716823924428	0.001263381958
4	386352	521.717411383064	0.000587458636
4	386363	521.724888905804	0.00747752274
4	386404	521.757611235911	0.032722330107
4	386461	521.893982208845	0.136370972934
4	386553	522.090410515178	0.196428306333
4	386560	522.094554693746	0.004144178568
4	386581	522.106271568335	0.011716874589
4	386608	522.130144097025	0.02387252869
4	386639	522.147441334366	0.017297237341
4	386664	522.16486482795	0.017423493584
4	386669	522.166003843119	0.001139015169
4	386684	522.183731503808	0.017727660689
4	386687	522.18490678812	0.001175284312
4	386730	522.215222305848	0.030315517728
4	386745	522.222281879721	0.007059573873
4	386812	522.264212049637	0.041930169916
4	386853	522.299244388459	0.035032338822
4	386870	522.350655286625	0.051410898166
4	386873	522.353146472405	0.00249118578
4	386886	522.370355750263	0.017209277858
4	386907	522.423054366587	0.052698616324
4	386910	522.423111945197	5.757861e-05
4	386921	522.431455976569	0.008344031372
4	386960	522.530063759747	0.098607783178
4	387031	522.664535672652	0.134471912905
4	387038	522.685151708827	0.020616036175
4	387045	522.691546211141	0.006394502314
4	387056	522.695400705093	0.003854493952
4	387059	522.695564824687	0.000164119594
4	387066	522.698954189204	0.003389364517
4	387069	522.700862807369	0.001908618165
4	387076	522.709742782262	0.008879974893
4	387091	522.717419757039	0.007676974777
4	387110	522.727356244993	0.009936487954
4	387135	522.751729982511	0.024373737518
4	387152	522.762839814347	0.011109831836
4	387155	522.763272479433	0.000432665086
4	387174	522.810578592382	0.047306112949
4	387209	522.849697816067	0.039119223685
4	387252	522.896156888143	0.046459072076
4	387310	523.004905902633	0.10874901449
4	387325	523.014616681262	0.009710778629
4	387400	523.124250982322	0.10963430106
4	387423	523.145232831426	0.020981849104
4	387482	523.240563050321	0.095330218895
4	387589	523.445715002838	0.205151952517
4	387648	523.485507677473	0.039792674635
4	387657	523.48937920678	0.003871529307
4	387662	523.490122548639	0.000743341859
4	387705	523.538086006517	0.047963457878
4	387718	523.542729786007	0.00464377949
4	387755	523.590182034058	0.047452248051
4	387774	523.612724830082	0.022542796024
4	387801	523.668541691158	0.055816861076
4	387816	523.690209260271	0.021667569113
4	387819	523.690247417041	3.815677e-05
4	387830	523.706206145218	0.015958728177
4	387833	523.710040004921	0.003833859703
4	387868	523.732053015646	0.022013010725
4	387877	523.734694379081	0.002641363435
4	387882	523.735025019662	0.000330640581
4	387905	523.758588555796	0.023563536134
4	387928	523.823495696275	0.064907140479
4	388007	523.903548677288	0.080052981013
4	388010	523.907400450287	0.003851772999
4	388037	523.976678496034	0.069278045747
4	388040	523.977508711294	0.00083021526
4	388055	523.992440040114	0.01493132882
4	388073	524.034326283487	0.041886243373
4	388096	524.042191851765	0.007865568278
4	388099	524.042276911941	8.5060176e-05
4	388128	524.123241160522	0.080964248581
4	388177	524.253558832247	0.130317671725
4	388188	524.266160480066	0.012601647819
4	388219	524.337167212642	0.071006732576
4	388222	524.337707235034	0.000540022392
4	388249	524.381847157727	0.044139922693
4	388300	524.426881126099	0.045033968372
4	388333	524.450190976451	0.023309850352
4	388336	524.451334482411	0.00114350596
4	388357	524.457171202134	0.005836719723
4	388382	524.477369021505	0.020197819371
4	388407	524.488994004269	0.011624982764
4	388410	524.48995341684	0.000959412571
4	388419	524.492179281217	0.002225864377
4	388424	524.495370426838	0.003191145621
4	388435	524.503525038935	0.008154612097
4	388466	524.566148010622	0.062622971687
4	388497	524.589278212806	0.023130202184
4	388510	524.592471735949	0.003193523143
4	388515	524.593705772892	0.001234036943
4	388546	524.670085073453	0.076379300561
4	388559	524.679665808285	0.009580734832
4	388562	524.680578653593	0.000912845308
4	388591	524.717922814518	0.037344160925
4	388618	524.749841376479	0.031918561961
4	388635	524.774644072742	0.024802696263
4	388638	524.77485026649	0.000206193748
4	388655	524.787958839451	0.013108572961
4	388666	524.796399776402	0.008440936951
4	388675	524.798668638738	0.002268862336
4	388704	524.821300085275	0.022631446537
4	388723	524.830160158186	0.008860072911
4	388726	524.83090892139	0.000748763204
4	388733	524.83318913146	0.00228021007
4	388760	524.861036095359	0.027846963899
4	388795	524.913979994447	0.052943899088
4	388830	524.960425786073	0.046445791626
4	388833	524.963091229625	0.002665443552
4	388940	525.039363244693	0.076272015068
4	388943	525.039986145245	0.000622900552
4	388946	525.041369261037	0.001383115792
4	388969	525.077089655668	0.035720394631
4	388972	525.077788565983	0.000698910315
4	388987	525.086564102903	0.00877553692
4	388994	525.116639239208	0.030075136305
4	388997	525.119673015561	0.003033776353
4	389014	525.147756148637	0.028083133076
4	389027	525.158541478349	0.010785329712
4	389034	525.18148512329	0.022943644941
4	389041	525.189861514691	0.008376391401
4	389052	525.215168353945	0.025306839254
4	389067	525.280931969205	0.06576361526
4	389086	525.310256615553	0.029324646348
4	389121	525.348394321877	0.038137706324
4	389124	525.348451732947	5.741107e-05
4	389139	525.374458802698	0.026007069751
4	389174	525.405156575997	0.030697773299
4	389181	525.414630528292	0.009473952295
4	389204	525.433237098314	0.018606570022
4	389207	525.433303999912	6.6901598e-05
4	389214	525.450467563841	0.017163563929
4	389227	525.456945800014	0.006478236173
4	389240	525.46488153716	0.007935737146
4	389263	525.525045895416	0.060164358256
4	389268	525.525250465538	0.000204570122
4	389329	525.611095456001	0.085844990463
4	389336	525.611949776182	0.000854320181
4	389359	525.621839826165	0.009890049983
4	389370	525.625997091469	0.004157265304
4	389397	525.649812021267	0.023814929798
4	389428	525.699085923561	0.049273902294
4	389431	525.699235090028	0.000149166467
4	389458	525.745891097705	0.046656007677
4	389481	525.78750759163	0.041616493925
4	389490	525.791193912228	0.003686320598
4	389523	525.864847086748	0.07365317452
4	389542	525.885911066996	0.021063980248
4	389573	525.921606174843	0.035695107847
4	389596	525.941393224742	0.019787049899
4	389615	525.949445580294	0.008052355552
4	389626	525.953581082095	0.004135501801
4	389641	525.96903153969	0.015450457595
4	389664	525.996509556555	0.027478016865
4	389667	525.99707144788	0.000561891325
4	389677	526.004989169275	0.007917721395
4	389680	526.00527530852	0.000286139245
4	389683	526.008026852072	0.002751543552
4	389710	526.06039171011	0.052364858038
4	389721	526.065057363673	0.004665653563
4	389724	526.066023972345	0.000966608672
4	389773	526.102100824759	0.036076852414
4	389782	526.10444021186	0.002339387101
4	389793	526.109140398725	0.004700186865
4	389796	526.109512446012	0.000372047287
4	389817	526.187249116368	0.077736670356
4	389830	526.197219119153	0.009970002785
4	389837	526.198063623407	0.000844504254
4	389876	526.214421691228	0.016358067821
4	389893	526.239063110734	0.024641419506
4	389950	526.277211525944	0.03814841521
4	389977	526.290227520071	0.013015994127
4	390000	526.315392547327	0.025165027256
4	390031	526.362338892314	0.046946344987
4	390064	526.39629309757	0.033954205256
4	390081	526.400748672754	0.004455575184
4	390160	526.512425363103	0.111676690349
4	390219	526.616097524871	0.103672161768
4	390224	526.625369517565	0.009271992694
4	390237	526.632509195824	0.007139678259
4	390252	526.686915978468	0.054406782644
4	390255	526.687585268051	0.000669289583
4	390280	526.759971550478	0.072386282427
4	390297	526.769188030439	0.009216479961
4	390304	526.776006783883	0.006818753444
4	390347	526.850030147696	0.074023363813
4	390366	526.857364900141	0.007334752445
4	390381	526.888342719092	0.030977818951
4	390392	526.898451677819	0.010108958727
4	390413	526.916287225443	0.017835547624
4	390438	526.934099902263	0.01781267682
4	390476	527.014974351284	0.080874449021
4	390479	527.016355118822	0.001380767538
4	390510	527.09064597384	0.074290855018
4	390597	527.263031069612	0.172385095772
4	390616	527.295163251526	0.032132181914
4	390679	527.371885028467	0.076721776941
4	390688	527.37559766754	0.003712639073
4	390723	527.432192533439	0.056594865899
4	390726	527.432245285587	5.2752148e-05
4	390751	527.463496266921	0.031250981334
4	390762	527.508608663948	0.045112397027
4	390773	527.520051057558	0.01144239361
4	390776	527.521112197805	0.001061140247
4	390815	527.553717283358	0.032605085553
4	390818	527.554318200656	0.000600917298
4	390825	527.55723600033	0.002917799674
4	390828	527.558025722638	0.000789722308
4	390847	527.570112404843	0.012086682205
4	390858	527.61399134976	0.043878944917
4	390871	527.631386254457	0.017394904697
4	390878	527.634743372284	0.003357117827
4	390931	527.668010287935	0.033266915651
4	390942	527.672092823637	0.004082535702
4	391041	527.818722368682	0.146629545045
4	391048	527.820243081005	0.001520712323
4	391075	527.857446195885	0.03720311488
4	391090	527.869292145314	0.011845949429
4	391125	527.932472166132	0.063180020818
4	391132	527.940444529407	0.007972363275
4	391159	527.986212520206	0.045767990799
4	391176	527.995803534883	0.009591014677
4	391185	527.997039390587	0.001235855704
4	391209	528.007962317389	0.010922926802
4	391258	528.069933742846	0.061971425457
4	391269	528.09884514013	0.028911397284
4	391272	528.099548763377	0.000703623247
4	391283	528.144927448859	0.045378685482
4	391334	528.227106979703	0.082179530844
4	391357	528.253812124817	0.026705145114
4	391388	528.268070059237	0.01425793442
4	391393	528.268497625699	0.000427566462
4	391396	528.269175985639	0.00067835994
4	391405	528.273906338487	0.004730352848
4	391420	528.28134162685	0.007435288363
4	391439	528.296033980341	0.014692353491
4	391442	528.300114730998	0.004080750657
4	391449	528.317271334246	0.017156603248
4	391460	528.3290887493	0.011817415054
4	391475	528.35753873335	0.02844998405
4	391490	528.381825152232	0.024286418882
4	391505	528.419003462698	0.037178310466
4	391528	528.440542542412	0.021539079714
4	391541	528.453920174029	0.013377631617
4	391544	528.454280180408	0.000360006379
4	391561	528.466338770438	0.01205859003
4	391564	528.466782814911	0.000444044473
4	391567	528.467391915417	0.000609100506
4	391576	528.4736964224	0.006304506983
4	391601	528.489608561205	0.015912138805
4	391672	528.574306835848	0.084698274643
4	391697	528.598797878766	0.024491042918
4	391726	528.612323054532	0.013525175766
4	391749	528.63311607227	0.020793017738
4	391760	528.644196639462	0.011080567192
4	391787	528.699405750932	0.05520911147
4	391790	528.699531952009	0.000126201077
4	391809	528.742815780432	0.043283828423
4	391816	528.743612371995	0.000796591563
4	391823	528.744821771628	0.001209399633
4	391846	528.796498753402	0.051676981774
4	391857	528.799618331799	0.003119578397
4	391888	528.816338328791	0.016719996992
4	391899	528.846192288597	0.029853959806
4	391906	528.861943533836	0.015751245239
4	391921	528.877952801552	0.016009267716
4	391924	528.878529995334	0.000577193782
4	391933	528.88590493221	0.007374936876
4	391938	528.88646630852	0.00056137631
4	391961	528.896168317832	0.009702009312
4	392016	528.984795073108	0.088626755276
4	392034	529.011746384844	0.026951311736
4	392037	529.011940842302	0.000194457458
4	392064	529.054621856123	0.042681013821
4	392067	529.057725423185	0.003103567062
4	392070	529.05896718697	0.001241763785
4	392133	529.1296273409	0.07066015393
4	392140	529.133230003316	0.003602662416
4	392161	529.163187165457	0.029957162141
4	392182	529.207310388875	0.044123223418
4	392187	529.207873892031	0.000563503156
4	392208	529.21691207029	0.009038178259
4	392223	529.227732373365	0.010820303075
4	392250	529.24835734041	0.020624967045
4	392265	529.264984828303	0.016627487893
4	392284	529.273709583078	0.008724754775
4	392327	529.299133437245	0.025423854167
4	392346	529.313422250045	0.0142888128
4	392409	529.453338068778	0.139915818733
4	392420	529.461977623614	0.008639554836
4	392435	529.468153583524	0.00617595991
4	392454	529.47800340729	0.009849823766
4	392473	529.528962877333	0.050959470043
4	392480	529.539710156124	0.010747278791
4	392483	529.540597675682	0.000887519558
4	392490	529.545417711196	0.004820035514
4	392507	529.562553734527	0.017136023331
4	392548	529.60705587342	0.044502138893
4	392555	529.608932965061	0.001877091641
4	392574	529.614286304148	0.005353339087
4	392629	529.72615424228	0.111867938132
4	392644	529.749377226702	0.023222984422
4	392679	529.873378733097	0.124001506395
4	392682	529.873740400122	0.000361667025
4	392693	529.883071950295	0.009331550173
4	392704	529.899312311664	0.016240361369
4	392715	529.913798655392	0.014486343728
4	392722	529.920652163656	0.006853508264
4	392725	529.920849950586	0.00019778693
4	392740	529.932844625103	0.011994674517
4	392755	529.966232303839	0.033387678736
4	392778	530.003264443048	0.037032139209
4	392785	530.049463895492	0.046199452444
4	392832	530.179755163939	0.130291268447
4	392835	530.182454764184	0.002699600245
4	392842	530.213211417498	0.030756653314
4	392853	530.22114019285	0.007928775352
4	392868	530.239928472568	0.018788279718
4	392883	530.281673481548	0.04174500898
4	392918	530.306019169223	0.024345687675
4	392947	530.327000262191	0.020981092968
4	392950	530.327235418045	0.000235155854
4	392983	530.367882133444	0.040646715399
4	392986	530.368394066815	0.000511933371
4	393001	530.381812995914	0.013418929099
4	393012	530.38924340118	0.007430405266
4	393019	530.391975640879	0.002732239699
4	393034	530.401867849938	0.009892209059
4	393057	530.417576842814	0.015708992876
4	393102	530.499716515214	0.0821396724
4	393119	530.550121440694	0.05040492548
4	393138	530.579741271277	0.029619830583
4	393141	530.580127120115	0.000385848838
4	393156	530.584608171224	0.004481051109
4	393159	530.585430639461	0.000822468237
4	393186	530.604616203398	0.019185563937
4	393189	530.60462712882	1.0925422e-05
4	393196	530.624980260522	0.020353131702
4	393199	530.62652905926	0.001548798738
4	393210	530.64057543016	0.0140463709
4	393221	530.644908901764	0.004333471604
4	393248	530.698447883768	0.053538982004
4	393259	530.702067778185	0.003619894417
4	393262	530.703313956587	0.001246178402
4	393285	530.714903651154	0.011589694567
4	393440	530.994123690617	0.279220039463
4	393453	531.000471905196	0.006348214579
4	393476	531.022288682113	0.021816776917
4	393479	531.022294291897	5.609784e-06
4	393496	531.06472982852	0.042435536623
4	393499	531.066529789242	0.001799960722
4	393512	531.082737074683	0.016207285441
4	393525	531.090929174563	0.00819209988
4	393570	531.2064068155	0.115477640937
4	393605	531.262095764131	0.055688948631
4	393624	531.282623845208	0.020528081077
4	393631	531.286138981943	0.003515136735
4	393650	531.336708540328	0.050569558385
4	393705	531.394091965217	0.057383424889
4	393720	531.479620265128	0.085528299911
4	393723	531.479915915431	0.000295650303
4	393734	531.485251015765	0.005335100334
4	393781	531.566881661415	0.08163064565
4	393808	531.616659602084	0.049777940669
4	393815	531.617583233306	0.000923631222
4	393826	531.619362885881	0.001779652575
4	393841	531.62479394948	0.005431063599
4	393872	531.650077270341	0.025283320861
4	393875	531.651223934688	0.001146664347
4	393898	531.708201079623	0.056977144935
4	393901	531.70862533098	0.000424251357
4	393912	531.723812830488	0.015187499508
4	393919	531.729217068688	0.0054042382
4	393940	531.751609050265	0.022391981577
4	393969	531.764727541831	0.013118491566
4	393986	531.771436803918	0.006709262087
4	393991	531.773032053159	0.001595249241
4	394002	531.78077355034	0.007741497181
4	394009	531.791160955083	0.010387404743
4	394034	531.816159238885	0.024998283802
4	394049	531.829455827154	0.013296588269
4	394054	531.834730420058	0.005274592904
4	394067	531.841526567889	0.006796147831
4	394096	531.857095274513	0.015568706624
4	394099	531.857855591469	0.000760316956
4	394104	531.860428709417	0.002573117948
4	394165	531.931359730999	0.070931021582
4	394172	531.933133054493	0.001773323494
4	394179	531.95912949262	0.025996438127
4	394197	532.006482042645	0.047352550025
4	394208	532.032879436774	0.026397394129
4	394219	532.058458893131	0.025579456357
4	394222	532.058578892949	0.000119999818
4	394237	532.085503858346	0.026924965397
4	394244	532.088937681095	0.003433822749
4	394255	532.099121965155	0.01018428406
4	394286	532.114163688491	0.015041723336
4	394289	532.114594438092	0.000430749601
4	394292	532.114737684453	0.000143246361
4	394295	532.117995263372	0.003257578919
4	394302	532.120560727387	0.002565464015
4	394361	532.236112229138	0.115551501751
4	394412	532.276092240337	0.039980011199
4	394427	532.29847131197	0.022379071633
4	394430	532.299530893899	0.001059581929
4	394445	532.366644126664	0.067113232765
4	394448	532.367609132945	0.000965006281
4	394485	532.395049473169	0.027440340224
4	394514	532.408147675273	0.013098202104
4	394519	532.410807583733	0.00265990846
4	394522	532.41231901766	0.001511433927
4	394531	532.418665461125	0.006346443465
4	394546	532.445325576239	0.026660115114
4	394549	532.447347655748	0.002022079509
4	394556	532.452578108776	0.005230453028
4	394595	532.471867858247	0.019289749471
4	394658	532.573950715553	0.102082857306
4	394665	532.574694800832	0.000744085279
4	394728	532.691993038665	0.117298237833
4	394745	532.774334332225	0.08234129356
4	394754	532.790349032634	0.016014700409
4	394765	532.809835025895	0.019485993261
4	394772	532.814796632672	0.004961606777
4	394775	532.817525550406	0.002728917734
4	394790	532.885999130086	0.06847357968
4	394793	532.886151125665	0.000151995579
4	394820	532.961257815937	0.075106690272
4	394837	532.967514831343	0.006257015406
4	394846	532.970281454301	0.002766622958
4	394853	532.972309745445	0.002028291144
4	394899	533.04871594699	0.076406201545
4	394902	533.048909258222	0.000193311232
4	394913	533.055984496278	0.007075238056
4	394952	533.111776119351	0.055791623073
4	394955	533.112546284757	0.000770165406
4	394982	533.160647912685	0.048101627928
4	394997	533.185294436836	0.024646524151
4	395018	533.239378485121	0.054084048285
4	395043	533.272850511698	0.033472026577
4	395046	533.27314570474	0.000295193042
4	395071	533.372769792828	0.099624088088
4	395074	533.377629712678	0.00485991985
4	395095	533.384157034765	0.006527322087
4	395142	533.456901989215	0.07274495445
4	395145	533.458686070871	0.001784081656
4	395168	533.472629899371	0.0139438285
4	395223	533.540521994773	0.067892095402
4	395228	533.541168569182	0.000646574409
4	395331	533.766562141692	0.22539357251
4	395336	533.767999970364	0.001437828672
4	395343	533.769907849591	0.001907879227
4	395354	533.772427559042	0.002519709451
4	395369	533.802889212341	0.030461653299
4	395384	533.819434608246	0.016545395905
4	395403	533.845767313508	0.026332705262
4	395406	533.845944800243	0.000177486735
4	395449	533.908974935989	0.063030135746
4	395452	533.910274989866	0.001300053877
4	395459	533.91543081336	0.005155823494
4	395462	533.915851280004	0.000420466644
4	395484	534.025530058668	0.109678778664
4	395507	534.073714937802	0.048184879134
4	395534	534.100703073741	0.026988135939
4	395541	534.129806934913	0.029103861172
4	395568	534.145059061836	0.015252126923
4	395619	534.186316297758	0.041257235922
4	395624	534.188661315981	0.002345018223
4	395705	534.350968679129	0.162307363148
4	395720	534.389575574124	0.038606894995
4	395731	534.41673196829	0.027156394166
4	395842	534.622781186894	0.206049218604
4	395845	534.622822616052	4.1429158e-05
4	395868	534.671598083944	0.048775467892
4	395919	534.704703092836	0.033105008892
4	395946	534.720545468978	0.015842376142
4	395961	534.736321660697	0.015776191719
4	395980	534.799220960034	0.062899299337
4	395999	534.821962134877	0.022741174843
4	396018	534.847633751348	0.025671616471
4	396021	534.847901158456	0.000267407108
4	396032	534.879524296797	0.031623138341
4	396055	534.903872709059	0.024348412262
4	396094	534.967155484463	0.063282775404
4	396177	535.181746904565	0.214591420102
4	396200	535.210852657613	0.029105753048
4	396203	535.212148874497	0.001296216884
4	396226	535.226871524528	0.014722650031
4	396241	535.248085822313	0.021214297785
4	396248	535.249757707008	0.001671884695
4	396259	535.252600553356	0.002842846348
4	396272	535.260870795305	0.008270241949
4	396277	535.261559226749	0.000688431444
4	396286	535.26411309692	0.002553870171
4	396289	535.264134693902	2.1596982e-05
4	396292	535.266102140062	0.00196744616
4	396303	535.270021506264	0.003919366202
4	396320	535.290069421077	0.020047914813
4	396343	535.305490732153	0.015421311076
4	396358	535.336055727084	0.030564994931
4	396377	535.380206937183	0.044151210099
4	396400	535.413241750204	0.033034813021
4	396423	535.454624193321	0.041382443117
4	396430	535.461507231288	0.006883037967
4	396449	535.478488828608	0.01698159732
4	396452	535.478831346379	0.000342517771
4	396459	535.481108369708	0.002277023329
4	396586	535.776581367044	0.295472997336
4	396641	535.86935401268	0.092772645636
4	396648	535.88352092889	0.01416691621
4	396675	535.909852556437	0.026331627547
4	396682	535.916691817071	0.006839260634
4	396689	535.918632334754	0.001940517683
4	396700	535.940796790156	0.022164455402
4	396713	535.945946846535	0.005150056379
4	396722	535.946834975587	0.000888129052
4	396733	535.953048409039	0.006213433452
4	396744	535.970583581083	0.017535172044
4	396763	535.992074050784	0.021490469701
4	396773	536.007227057421	0.015153006637
4	396788	536.03175453705	0.024527479629
4	396795	536.036359795822	0.004605258772
4	396802	536.04008797897	0.003728183148
4	396809	536.053393883545	0.013305904575
4	396854	536.092909935796	0.039516052251
4	396879	536.128217886887	0.035307951091
4	396922	536.177374911334	0.049157024447
4	396949	536.207806605934	0.0304316946
4	396980	536.283412451186	0.075605845252
4	396991	536.289808046132	0.006395594946
4	396998	536.307013420585	0.017205374453
4	397001	536.307881667912	0.000868247327
4	397012	536.317247960968	0.009366293056
4	397051	536.350271652171	0.033023691203
4	397058	536.372268806663	0.021997154492
4	397061	536.372514522008	0.000245715345
4	397064	536.373076855441	0.000562333433
4	397103	536.392228402531	0.01915154709
4	397106	536.392380812285	0.000152409754
4	397153	536.479558924188	0.087178111903
4	397176	536.521835543126	0.042276618938
4	397191	536.530738081815	0.008902538689
4	397226	536.562434231151	0.031696149336
4	397233	536.570825606786	0.008391375635
4	397240	536.573110446042	0.002284839256
4	397271	536.612247801476	0.039137355434
4	397274	536.612361207796	0.00011340632
4	397277	536.612475973382	0.000114765586
4	397288	536.642491193179	0.030015219797
4	397307	536.728474168114	0.085982974935
4	397326	536.766892615466	0.038418447352
4	397365	536.838709585782	0.071816970316
4	397370	536.840540540877	0.001830955095
4	397373	536.841753202584	0.001212661707
4	397382	536.84406851081	0.002315308226
4	397393	536.85411999428	0.01005148347
4	397404	536.862275914866	0.008155920586
4	397411	536.90187814685	0.039602231984
4	397444	536.922877397237	0.020999250387
4	397447	536.923441410536	0.000564013299
4	397450	536.923795591904	0.000354181368
4	397483	536.982954104798	0.059158512894
4	397492	536.988488568819	0.005534464021
4	397501	536.993855388305	0.005366819486
4	397527	537.048164274251	0.054308885946
4	397542	537.062945988038	0.014781713787
4	397547	537.064328623457	0.001382635419
4	397596	537.117088639357	0.0527600159
4	397607	537.124375982954	0.007287343597
4	397614	537.125768325496	0.001392342542
4	397629	537.138515859529	0.012747534033
4	397638	537.153170332248	0.014654472719
4	397655	537.158227859634	0.005057527386
4	397670	537.165817728263	0.007589868629
4	397693	537.201867811585	0.036050083322
4	397744	537.276816096594	0.074948285009
4	397751	537.279539626584	0.00272352999
4	397774	537.3057448399	0.026205213316
4	397777	537.306755422861	0.001010582961
4	397780	537.306952419929	0.000196997068
4	397807	537.363215457013	0.056263037084
4	397846	537.391869740065	0.028654283052
4	397885	537.423842949533	0.031973209468
4	397900	537.499936925171	0.076093975638
4	397903	537.501268357722	0.001331432551
4	397906	537.50146632246	0.000197964738
4	397921	537.509364437196	0.007898114736
4	397968	537.554221241435	0.044856804239
4	397975	537.558249184645	0.00402794321
4	397978	537.558657003623	0.000407818978
4	397993	537.569121405165	0.010464401542
4	398012	537.57989852435	0.010777119185
4	398017	537.581497648216	0.001599123866
4	398046	537.634099414682	0.052601766466
4	398053	537.676978236251	0.042878821569
4	398072	537.685944236624	0.008966000373
4	398095	537.712786075669	0.026841839045
4	398102	537.717506856557	0.004720780888
4	398159	537.747973440019	0.030466583462
4	398162	537.748075891464	0.000102451445
4	398165	537.7492399572	0.001164065736
4	398170	537.750352673477	0.001112716277
4	398181	537.759064388672	0.008711715195
4	398194	537.768763291358	0.009698902686
4	398211	537.778249406045	0.009486114687
4	398236	537.791775034153	0.013525628108
4	398285	537.875864381576	0.084089347423
4	398308	537.902845265613	0.026980884037
4	398331	537.938099046349	0.035253780736
4	398334	537.938552501179	0.00045345483
4	398345	537.967616879698	0.029064378519
4	398360	537.996174212613	0.028557332915
4	398388	538.012875470932	0.016701258319
4	398401	538.021778108342	0.00890263741
4	398436	538.080191280132	0.05841317179
4	398475	538.17454574783	0.094354467698
4	398502	538.192410510876	0.017864763046
4	398557	538.252667845715	0.060257334839
4	398576	538.300293522218	0.047625676503
4	398579	538.302563825732	0.002270303514
4	398592	538.314227555318	0.011663729586
4	398599	538.315485607592	0.001258052274
4	398610	538.317189779608	0.001704172016
4	398619	538.320625259427	0.003435479819
4	398634	538.327784502545	0.007159243118
4	398641	538.331220719567	0.003436217022
4	398668	538.37642055961	0.045199840043
4	398681	538.401046857993	0.024626298383
4	398684	538.402076497253	0.00102963926
4	398717	538.425831069042	0.023754571789
4	398740	538.498936922123	0.073105853081
4	398751	538.502793864938	0.003856942815
4	398778	538.53824753272	0.035453667782
4	398781	538.539693262259	0.001445729539
4	398812	538.560033879725	0.020340617466
4	398815	538.560353965748	0.000320086023
4	398818	538.562928165945	0.002574200197
4	398821	538.564346863408	0.001418697463
4	398828	538.579631040747	0.015284177339
4	398837	538.597551643348	0.017920602601
4	398866	538.626412744352	0.028861101004
4	398873	538.62966697048	0.003254226128
4	398904	538.660002343866	0.030335373386
4	398939	538.693033822156	0.03303147829
4	398974	538.712487452878	0.019453630722
4	399037	538.771163634535	0.058676181657
4	399076	538.810090863131	0.038927228596
4	399097	538.828364613377	0.018273750246
4	399102	538.829832224449	0.001467611072
4	399123	538.841067231667	0.011235007218
4	399184	538.967668379333	0.126601147666
4	399195	538.993001215112	0.025332835779
4	399225	539.055331866477	0.062330651365
4	399232	539.058009451658	0.002677585181
4	399251	539.100663168466	0.042653716808
4	399278	539.157925403823	0.057262235357
4	399293	539.161925774317	0.004000370494
4	399298	539.164546996698	0.002621222381
4	399377	539.258675024332	0.094128027634
4	399390	539.274402329959	0.015727305627
4	399405	539.29006189864	0.015659568681
4	399470	539.351896489974	0.061834591334
4	399483	539.375324958327	0.023428468353
4	399490	539.378099714237	0.00277475591
4	399495	539.379655017169	0.001555302932
4	399502	539.382255479492	0.002600462323
4	399523	539.418010961968	0.035755482476
4	399534	539.453466834251	0.035455872283
4	399541	539.457095162668	0.003628328417
4	399568	539.53459157849	0.077496415822
4	399595	539.656120726892	0.121529148402
4	399598	539.657377595597	0.001256868705
4	399605	539.660747050173	0.003369454576
4	399652	539.75060174384	0.089854693667
4	399691	539.811957267356	0.061355523516
4	399698	539.813286639328	0.001329371972
4	399707	539.815573407886	0.002286768558
4	399710	539.817807781014	0.002234373128
4	399727	539.840682606303	0.022874825289
4	399730	539.844492844598	0.003810238295
4	399737	539.856210820557	0.011717975959
4	399740	539.857565131265	0.001354310708
4	399757	539.868957224913	0.011392093648
4	399760	539.869603310657	0.000646085744
4	399777	539.881529537439	0.011926226782
4	399796	539.9369369471	0.055407409661
4	399819	539.959196127446	0.022259180346
4	399824	539.961684968398	0.002488840952
4	399845	539.973992569843	0.012307601445
4	399852	539.976233814126	0.002241244283
4	399859	539.977774950426	0.0015411363
4	399882	540.009392931323	0.031617980897
4	399887	540.010699250508	0.001306319185
4	399900	540.05275631656	0.042057066052
4	399907	540.057103778936	0.004347462376
4	399938	540.082439422656	0.02533564372
4	399941	540.08429237934	0.001852956684
4	399958	540.09010243386	0.00581005452
4	399971	540.093633621277	0.003531187417
4	399994	540.134732656815	0.041099035538
4	400075	540.256408384288	0.121675727473
4	400132	540.33905164701	0.082643262722
4	400151	540.360786199888	0.021734552878
4	400166	540.386395238336	0.025609038448
4	400173	540.450237876232	0.063842637896
4	400176	540.451335911456	0.001098035224
4	400199	540.514518030346	0.06318211889
4	400218	540.535929338773	0.021411308427
4	400233	540.559139973581	0.023210634808
4	400264	540.615720831044	0.056580857463
4	400281	540.622881180566	0.007160349522
4	400284	540.62326844651	0.000387265944
4	400299	540.627788929517	0.004520483007
4	400304	540.62844708858	0.000658159063
4	400315	540.632942465072	0.004495376492
4	400350	540.709540652413	0.076598187341
4	400377	540.748312657351	0.038772004938
4	400424	540.802430009374	0.054117352023
4	400427	540.803486615675	0.001056606301
4	400430	540.803550685352	6.4069677e-05
4	400459	540.81979638651	0.016245701158
4	400522	540.875026618416	0.055230231906
4	400563	540.941902951595	0.066876333179
4	400570	540.949745184046	0.007842232451
4	400573	540.952112614346	0.0023674303
4	400600	540.969026395955	0.016913781609
4	400657	541.019461887295	0.05043549134
4	400676	541.04898742758	0.029525540285
4	400685	541.056172910009	0.007185482429
4	400702	541.104947373173	0.048774463164
4	400709	541.117288042093	0.01234066892
4	400712	541.117595831231	0.000307789138
4	400727	541.126593336819	0.008997505588
4	400770	541.238917684192	0.112324347373
4	400773	541.239695973131	0.000778288939
4	400790	541.256138579275	0.016442606144
4	400811	541.274197058983	0.018058479708
4	400820	541.27620090088	0.002003841897
4	400837	541.287557425119	0.011356524239
4	400880	541.372436695465	0.084879270346
4	400883	541.372509009866	7.2314401e-05
4	400886	541.373103579676	0.00059456981
4	400889	541.37403683021	0.000933250534
4	400910	541.38433581038	0.01029898017
4	400917	541.385977412313	0.001641601933
4	400930	541.393983279335	0.008005867022
4	400941	541.397617678915	0.00363439958
4	400944	541.398094794202	0.000477115287
4	400963	541.457791325683	0.059696531481
4	400966	541.458062923326	0.000271597643
4	400993	541.497091652906	0.03902872958
4	401026	541.550216999258	0.053125346352
4	401065	541.560594090503	0.010377091245
4	401076	541.564833977852	0.004239887349
4	401081	541.566283020618	0.001449042766
4	401106	541.578859297703	0.012576277085
4	401109	541.579340711349	0.000481413646
4	401112	541.579367847117	2.7135768e-05
4	401139	541.589728097212	0.010360250095
4	401164	541.602464825248	0.012736728036
4	401171	541.638038722079	0.035573896831
4	401190	541.69912605394	0.061087331861
4	401193	541.70140603526	0.00227998132
4	401204	541.71881982892	0.01741379366
4	401229	541.791661430548	0.072841601628
4	401246	541.806829624865	0.015168194317
4	401253	541.817103590906	0.010273966041
4	401260	541.827102409618	0.009998818712
4	401275	541.835088903675	0.007986494057
4	401302	541.862246441891	0.027157538216
4	401345	541.946983368093	0.084736926202
4	401383	542.046842880971	0.099859512878
4	401430	542.183147291605	0.136304410634
4	401445	542.219035025558	0.035887733953
4	401458	542.225989065574	0.006954040016
4	401467	542.228127892389	0.002138826815
4	401470	542.228679299809	0.00055140742
4	401499	542.250211488798	0.021532188989
4	401520	542.25466437024	0.004452881442
4	401527	542.271011667096	0.016347296856
4	401534	542.274543288925	0.003531621829
4	401541	542.282933249662	0.008389960737
4	401576	542.372355975138	0.089422725476
4	401579	542.37358420543	0.001228230292
4	401598	542.410110401337	0.036526195907
4	401607	542.424866285092	0.014755883755
4	401624	542.441695236352	0.01682895126
4	401639	542.455470101091	0.013774864739
4	401658	542.467887638672	0.012417537581
4	401689	542.4912158226	0.023328183928
4	401696	542.494249572231	0.003033749631
4	401739	542.554019919693	0.059770347462
4	401814	542.719405093276	0.165385173583
4	401821	542.727832986512	0.008427893236
4	401852	542.758395411495	0.030562424983
4	401857	542.760050946682	0.001655535187
4	401864	542.765460844401	0.005409897719
4	401869	542.766357303998	0.000896459597
4	401884	542.777652687067	0.011295383069
4	401891	542.779355513985	0.001702826918
4	401920	542.794015079064	0.014659565079
4	401923	542.795464488344	0.00144940928
4	401984	542.879160106718	0.083695618374
4	401995	542.886292080014	0.007131973296
4	402020	542.939832281663	0.053540201649
4	402045	542.958262672018	0.018430390355
4	402083	543.002630088072	0.044367416054
4	402086	543.002749111774	0.000119023702
4	402101	543.012663851503	0.009914739729
4	402112	543.025965832318	0.013301980815
4	402139	543.046618691644	0.020652859326
4	402146	543.048763489077	0.002144797433
4	402197	543.120965497017	0.07220200794
4	402200	543.121752399815	0.000786902798
4	402223	543.157181379377	0.035428979562
4	402226	543.157336841529	0.000155462152
4	402233	543.159829486463	0.002492644934
4	402302	543.256784548047	0.096955061584
4	402339	543.300792298727	0.04400775068
4	402370	543.39721907005	0.096426771323
4	402405	543.438506799614	0.041287729564
4	402416	543.444273491439	0.005766691825
4	402419	543.445263158041	0.000989666602
4	402442	543.486926428305	0.041663270264
4	402477	543.553686746751	0.066760318446
4	402510	543.584922920111	0.03123617336
4	402515	543.587027348554	0.002104428443
4	402542	543.64299940129	0.055972052736
4	402565	543.668818145668	0.025818744378
4	402592	543.675293501779	0.006475356111
4	402603	543.680961425806	0.005667924027
4	402646	543.725075728211	0.044114302405
4	402681	543.781878229837	0.056802501626
4	402684	543.782574041545	0.000695811708
4	402687	543.783349692637	0.000775651092
4	402698	543.807277536433	0.023927843796
4	402701	543.807870973046	0.000593436613
4	402712	543.821536446441	0.013665473395
4	402719	543.82605945951	0.004523013069
4	402730	543.830120999769	0.004061540259
4	402737	543.848751352331	0.018630352562
4	402748	543.858819329513	0.010067977182
4	402846	544.135076483435	0.276257153922
4	402935	544.308070773844	0.172994290409
4	402944	544.310566864503	0.002496090659
4	402947	544.311444428265	0.000877563762
4	402958	544.315883015414	0.004438587149
4	402961	544.317089432361	0.001206416947
4	402968	544.319673692632	0.002584260271
4	402987	544.330309289346	0.010635596714
4	402990	544.330656696828	0.000347407482
4	402993	544.331431022253	0.000774325425
4	403008	544.337773100249	0.006342077996
4	403015	544.340216079903	0.002442979654
4	403026	544.351909469181	0.011693389278
4	403041	544.383561209369	0.031651740188
4	403056	544.39402570633	0.010464496961
4	403101	544.454536742694	0.060511036364
4	403104	544.454733272489	0.000196529795
4	403129	544.465593189084	0.010859916595
4	403144	544.484827983718	0.019234794634
4	403159	544.497854925684	0.013026941966
4	403192	544.554364018977	0.056509093293
4	403237	544.599668382881	0.045304363904
4	403244	544.603871137699	0.004202754818
4	403251	544.607432023261	0.003560885562
4	403266	544.615553284093	0.008121260832
4	403293	544.705304846855	0.089751562762
4	403312	544.717420072017	0.012115225162
4	403319	544.723644085366	0.006224013349
4	403338	544.750035604158	0.026391518792
4	403389	544.812833362481	0.062797758323
4	403398	544.817638499787	0.004805137306
4	403411	544.819595384703	0.001956884916
4	403462	544.896491618615	0.076896233912
4	403473	544.902945472883	0.006453854268
4	403498	544.939585409309	0.036639936426
4	403505	544.940740506233	0.001155096924
4	403522	544.963227860115	0.022487353882
4	403525	544.966354026519	0.003126166404
4	403548	544.990787834362	0.024433807843
4	403551	544.992893607394	0.002105773032
4	403566	545.013173820024	0.02028021263
4	403577	545.02393365021	0.010759830186
4	403580	545.025651241611	0.001717591401
4	403591	545.030119589076	0.004468347465
4	403606	545.066384657263	0.036265068187
4	403651	545.120694548496	0.054309891233
4	403680	545.135454244914	0.014759696418
4	403691	545.14666267754	0.011208432626
4	403704	545.150243605318	0.003580927778
4	403725	545.161638875146	0.011395269828
4	403752	545.182951928246	0.0213130531
4	403755	545.183783350332	0.000831422086
4	403758	545.184333960239	0.000550609907
4	403777	545.219531803644	0.035197843405
4	403788	545.224200864539	0.004669060895
4	403803	545.297506651462	0.073305786923
4	403806	545.298036446396	0.000529794934
4	403809	545.299475107224	0.001438660828
4	403816	545.302845588215	0.003370480991
4	403839	545.354515760548	0.051670172333
4	403844	545.356203133936	0.001687373388
4	403853	545.358555183308	0.002352049372
4	403876	545.38586068461	0.027305501302
4	403881	545.387932735651	0.002072051041
4	403886	545.38882144992	0.000888714269
4	403909	545.451992436555	0.063170986635
4	403948	545.493369652049	0.041377215494
4	403951	545.493594801079	0.00022514903
4	403982	545.526085931033	0.032491129954
4	403989	545.530016565985	0.003930634952
4	403996	545.531845940392	0.001829374407
4	403999	545.532972129371	0.001126188979
4	404018	545.546539250004	0.013567120633
4	404027	545.548161499023	0.001622249019
4	404036	545.551380651022	0.003219151999
4	404039	545.551749082631	0.000368431609
4	404074	545.586677936353	0.034928853722
4	404083	545.614232178684	0.027554242331
4	404088	545.616662350235	0.002430171551
4	404119	545.642032631008	0.025370280773
4	404144	545.682903255078	0.04087062407
4	404157	545.699901542834	0.016998287756
4	404160	545.700948943902	0.001047401068
4	404183	545.727809646767	0.026860702865
4	404186	545.727862843365	5.3196598e-05
4	404209	545.743677174699	0.015814331334
4	404216	545.748610089925	0.004932915226
4	404239	545.781252015185	0.03264192526
4	404250	545.7911804665	0.009928451315
4	404257	545.823271372186	0.032090905686
4	404268	545.830958584382	0.007687212196
4	404301	545.85025267491	0.019294090528
4	404304	545.851052205635	0.000799530725
4	404307	545.852432598869	0.001380393234
4	404316	545.856338901212	0.003906302343
4	404319	545.85741285851	0.001073957298
4	404334	545.861294195746	0.003881337236
4	404345	545.865319616566	0.00402542082
4	404366	545.875042106417	0.009722489851
4	404391	545.887161306138	0.012119199721
4	404422	545.912610689444	0.025449383306
4	404445	545.940255302829	0.027644613385
4	404448	545.940685358817	0.000430055988
4	404483	545.990682666133	0.049997307316
4	404527	546.017197028957	0.026514362824
4	404546	546.029543656127	0.01234662717
4	404555	546.033710500147	0.00416684402
4	404562	546.038126805497	0.00441630535
4	404569	546.042329095116	0.004202289619
4	404580	546.050141892522	0.007812797406
4	404595	546.062463073756	0.012321181234
4	404602	546.064481096843	0.002018023087
4	404643	546.119958282271	0.055477185428
4	404652	546.121361908684	0.001403626413
4	404667	546.131223205411	0.009861296727
4	404702	546.143595926098	0.012372720687
4	404713	546.147890992922	0.004295066824
4	404724	546.154991922665	0.007100929743
4	404731	546.15637940492	0.001387482255
4	404736	546.15749588879	0.00111648387
4	404749	546.171398720871	0.013902832081
4	404800	546.220126879131	0.04872815826
4	404819	546.236891581859	0.016764702728
4	404826	546.250325904216	0.013434322357
4	404829	546.251499848312	0.001173944096
4	404836	546.262136235171	0.010636386859
4	404843	546.26637824704	0.004242011869
4	404874	546.297752404553	0.031374157513
4	404877	546.297952072753	0.0001996682
4	404884	546.344197671464	0.046245598711
4	404897	546.346881867727	0.002684196263
4	404934	546.411674745514	0.064792877787
4	404953	546.426283457618	0.014608712104
4	404992	546.487250699524	0.060967241906
4	405003	546.492626807479	0.005376107955
4	405042	546.539404739013	0.046777931534
4	405045	546.53961415654	0.000209417527
4	405064	546.592187230439	0.052573073899
4	405075	546.601674434373	0.009487203934
4	405090	546.636203782535	0.034529348162
4	405133	546.66134916214	0.025145379605
4	405144	546.664987947128	0.003638784988
4	405167	546.72607754791	0.061089600782
4	405210	546.836537061506	0.110459513596
4	405213	546.837428664447	0.000891602941
4	405244	546.921802702541	0.084374038094
4	405251	546.928681837157	0.006879134616
4	405258	546.93247976757	0.003797930413
4	405312	547.001332100443	0.068852332873
4	405351	547.03217500127	0.030842900827
4	405362	547.035788085675	0.003613084405
4	405379	547.093638422883	0.057850337208
4	405392	547.098508225328	0.004869802445
4	405395	547.099993681002	0.001485455674
4	405410	547.11579589903	0.015802218028
4	405421	547.121961326599	0.006165427569
4	405448	547.159846480392	0.037885153793
4	405471	547.192994685315	0.033148204923
4	405490	547.212667883949	0.019673198634
4	405493	547.215635835388	0.002967951439
4	405504	547.220279173582	0.004643338194
4	405527	547.237141110863	0.016861937281
4	405530	547.239953670487	0.002812559624
4	405541	547.242359339129	0.002405668642
4	405568	547.254852213259	0.01249287413
4	405621	547.311454143596	0.056601930337
4	405638	547.319330502482	0.007876358886
4	405649	547.326081777091	0.006751274609
4	405662	547.351075265573	0.024993488482
4	405667	547.35223922841	0.001163962837
4	405674	547.355033961326	0.002794732916
4	405693	547.361483510208	0.006449548882
4	405696	547.362784455999	0.001300945791
4	405701	547.363346138101	0.000561682102
4	405742	547.392025441344	0.028679303243
4	405773	547.413201914761	0.021176473417
4	405776	547.413604177313	0.000402262552
4	405803	547.442548314212	0.028944136899
4	405822	547.474599576091	0.032051261879
4	405857	547.542619092544	0.068019516453
4	405868	547.550928552179	0.008309459635
4	405871	547.551319037898	0.000390485719
4	405902	547.57359950456	0.022280466662
4	405921	547.581833983691	0.008234479131
4	405956	547.657022012398	0.075188028707
4	405959	547.657027625197	5.612799e-06
4	405982	547.678640142063	0.021612516866
4	406067	547.823371499837	0.144731357774
4	406070	547.823562070884	0.000190571047
4	406135	547.955734562291	0.132172491407
4	406157	548.006491527762	0.050756965471
4	406164	548.009621014542	0.00312948678
4	406179	548.031486192959	0.021865178417
4	406186	548.041625244755	0.010139051796
4	406201	548.055084717966	0.013459473211
4	406224	548.061709866421	0.006625148455
4	406251	548.130980146657	0.069270280236
4	406280	548.155379188842	0.024399042185
4	406373	548.408006015223	0.252626826381
4	406384	548.448288883286	0.040282868063
4	406391	548.472348891866	0.02406000858
4	406426	548.499786804935	0.027437913069
4	406429	548.501563409574	0.001776604639
4	406444	548.516147178578	0.014583769004
4	406447	548.516360391755	0.000213213177
4	406472	548.533246553466	0.016886161711
4	406481	548.535061629294	0.001815075828
4	406556	548.679230429655	0.144168800361
4	406567	548.683158653123	0.003928223468
4	406572	548.683855926341	0.000697273218
4	406615	548.713523858368	0.029667932027
4	406628	548.718714750134	0.005190891766
4	406637	548.720244369794	0.00152961966
4	406654	548.730904363943	0.010659994149
4	406665	548.752185832986	0.021281469043
4	406668	548.752798208265	0.000612375279
4	406677	548.755229590012	0.002431381747
4	406680	548.756785988642	0.00155639863
4	406701	548.786912347662	0.03012635902
4	406732	548.849086342058	0.062173994396
4	406771	548.952319804839	0.103233462781
4	406782	548.956130582395	0.003810777556
4	406791	548.959459161673	0.003328579278
4	406816	548.975640641156	0.016181479483
4	406842	549.009747104641	0.034106463485
4	406857	549.016816263667	0.007069159026
4	406860	549.016932688127	0.00011642446
4	406915	549.079440596161	0.062507908034
4	406918	549.079723448123	0.000282851962
4	406945	549.099726085607	0.020002637484
4	406972	549.136041805726	0.036315720119
4	406991	549.14901915061	0.012977344884
4	406994	549.149380860508	0.000361709898
4	407041	549.184924505515	0.035543645007
4	407056	549.198313614626	0.013389109111
4	407071	549.243159046732	0.044845432106
4	407074	549.248587381429	0.005428334697
4	407089	549.263056091123	0.014468709694
4	407108	549.270265936589	0.007209845466
4	407135	549.28279823466	0.012532298071
4	407146	549.289544543948	0.006746309288
4	407161	549.293925717122	0.004381173174
4	407164	549.294423534263	0.000497817141
4	407219	549.420852553639	0.126429019376
4	407226	549.421349720328	0.000497166689
4	407249	549.430839098751	0.009489378423
4	407260	549.43289686303	0.002057764279
4	407263	549.433316375875	0.000419512845
4	407354	549.633835089705	0.20051871383
4	407357	549.634346996911	0.000511907206
4	407424	549.783825771138	0.149478774227
4	407437	549.789448151093	0.005622379955
4	407440	549.790064257165	0.000616106072
4	407443	549.790259231139	0.000194973974
4	407456	549.796434024218	0.006174793079
4	407473	549.806938382575	0.010504358357
4	407510	549.824997776783	0.018059394208
4	407537	549.83841605922	0.013418282437
4	407540	549.838800790789	0.000384731569
4	407543	549.839079815135	0.000279024346
4	407554	549.847216810302	0.008136995167
4	407577	549.886678785029	0.039461974727
4	407596	549.962764723009	0.07608593798
4	407603	549.967342579141	0.004577856132
4	407614	549.977876962458	0.010534383317
4	407617	549.97824092922	0.000363966762
4	407636	550.002218238217	0.023977308997
4	407659	550.033241694026	0.031023455809
4	407662	550.033315308229	7.3614203e-05
4	407665	550.033319523283	4.215054e-06
4	407700	550.070960144578	0.037640621295
4	407705	550.072163652098	0.00120350752
4	407726	550.106216386765	0.034052734667
4	407749	550.160966562434	0.054750175669
4	407768	550.195523019748	0.034556457314
4	407791	550.22827958032	0.032756560572
4	407824	550.244332404637	0.016052824317
4	407857	550.258594815154	0.014262410517
4	407868	550.27099307799	0.012398262836
[...]
5	1097237	1487.01721675843	0.002846947428
5	1097256	1487.039588533438	1.610708447958
5	1097327	1487.116404575635	2.302375031907
5	1097330	1487.117971921778	0.001567346143
5	1097359	1487.147652813912	2.200276665436
5	1097372	1487.165320055397	1.506903101404
5	1097427	1487.261003838889	4.531144527746
5	1097430	1487.26151874056	0.000514901671
5	1097457	1487.308697864593	5.239436675544
5	1097496	1487.393293557877	0.695243618639
5	1097499	1487.393849038857	0.00055548098
5	1097538	1487.498654378407	2.320670038099
5	1097581	1487.62597982302	0.793475723831
5	1097612	1487.646754314199	3.820017732797
5	1097615	1487.64683439891	8.0084711e-05
5	1097634	1487.700052538578	0.796067409753
5	1097659	1487.804077940395	1.670291754757
5	1097674	1487.814118887341	0.839510258944
5	1097677	1487.817090806334	8.995318863329
5	1097682	1487.817280979416	0.000190173082
5	1097705	1487.892724222457	0.875507464027
5	1097712	1487.904548936324	0.011824713867
5	1097747	1487.9430485094	1.595001216355
5	1097867	1488.105920840464	2.39431186622
5	1097872	1488.106519630314	0.00059878985
5	1097891	1488.11960001027	0.954279954873
5	1097906	1488.124472273178	4.00627901679
5	1097929	1488.233077599444	1.625562995389
5	1097950	1488.258818887405	4.666223745325
5	1097971	1488.339255174092	4.726603955752
5	1098022	1488.424935912314	1.709757679089
5	1098065	1488.486652693057	0.98799831465
5	1098084	1488.494861243484	5.521837167332
5	1098087	1488.495981950757	0.001120707273
5	1098102	1488.507246518506	1.655833386255
5	1098149	1488.591516661611	2.42824117999
5	1098156	1488.607863131975	0.016346470364
5	1098183	1488.638642994839	0.834565054444
5	1098198	1488.670539364018	4.732358788033
5	1098209	1488.676662638236	0.772113701912
5	1098260	1488.774750974668	7.611088254465
5	1098275	1488.781484523633	3.359181893302
5	1098286	1488.794148099248	5.547836528354
5	1098301	1488.842773548362	2.385886221458
5	1098314	1488.854116839235	3.957913398109
5	1098335	1488.900690673757	3.20339928334
5	1098352	1488.921215199134	0.81469556882
5	1098389	1488.954600970021	0.830128696843
5	1098408	1488.966494556195	8.265070117655
5	1098434	1489.005316057053	2.393802013627
5	1098437	1489.006589978379	0.001273921326
5	1098476	1489.067454228964	0.728199054872
5	1098499	1489.13687667899	3.308118345942
5	1098510	1489.14345478446	0.00657810547
5	1098555	1489.198793800612	3.244981460997
5	1098622	1489.368762049921	1.721927651011
5	1098651	1489.419101290173	2.47472452013
5	1098666	1489.424314108474	0.816450976499
5	1098669	1489.425318638315	0.001004529841
5	1098692	1489.514670893182	1.697389913766
5	1098695	1489.514969092739	0.000298199557
5	1098708	1489.531568547066	3.359038671034
5	1098717	1489.53776313588	0.867223771862
5	1098722	1489.542945082681	0.005181946801
5	1098739	1489.549407456507	0.006462373826
5	1098754	1489.61501855181	9.080676001809
5	1098757	1489.61515349056	0.00013493875
5	1098764	1489.620711992223	0.005558501663
5	1098819	1489.662386310839	0.880901787206
5	1098822	1489.663458520341	0.001072209502
5	1098825	1489.664520692882	0.001062172541
5	1098832	1489.667901648551	5.657042223255
5	1098865	1489.692712788242	0.02819209536
5	1098872	1489.697627886586	0.004915098344
5	1098903	1489.734931493959	4.787845321767
5	1098906	1489.737587013172	0.836896339415
5	1098909	1489.738085239571	0.003153745612
5	1098966	1489.821032213203	1.701432202933
5	1098997	1489.844458463865	0.837868485486
5	1099076	1489.950598441956	3.253615264448
5	1099091	1489.973934653337	1.548998741023
5	1099098	1489.977437076095	0.778643275483
5	1099101	1489.978245912454	0.000808836359
5	1099148	1490.028491757774	1.541839064717
5	1099235	1490.150914457288	2.336795569947
5	1099238	1490.151633026196	0.000718568908
5	1099243	1490.153005376128	0.001372349932
5	1099256	1490.159694115758	0.00668873963
5	1099263	1490.168793339362	0.637224792296
5	1099282	1490.193930699139	0.644523242632
5	1099285	1490.197158607695	0.003227908556
5	1099312	1490.250343653356	0.629631661133
5	1099321	1490.256292936984	2.313244427584
5	1099406	1490.354367235905	0.656739349319
5	1099425	1490.366586835955	9.730550118642
5	1099532	1490.454537567433	1.499936597412
5	1099535	1490.455241510828	0.000703943395
5	1099542	1490.457553433026	3.853148717186
5	1099573	1490.490012242591	3.815642459015
5	1099596	1490.540334724403	3.146485685546
5	1099639	1490.561466597643	0.587531944306
5	1099646	1490.565136720713	0.614538278757
5	1099693	1490.610007985975	3.912629579254
5	1099708	1490.623695843097	0.013687857122
5	1099711	1490.624057800282	0.000361957185
5	1099742	1490.654559407793	3.880922172327
5	1099765	1490.676875594084	4.645311880794
5	1099796	1490.727205296617	2.219958778111
5	1099807	1490.738266156566	4.627430237082
5	1099814	1490.794320839198	3.09426830062
5	1099849	1490.868664532325	1.449563242152
5	1099866	1490.875072705409	2.23642971057
5	1099877	1490.879779604223	1.454460965908
5	1099882	1490.880506279817	0.711712940455
5	1099897	1490.894262340446	0.019189635037
5	1099910	1490.899274906474	2.222612268238
5	1099943	1490.920741326321	2.145990351653
5	1099946	1490.921152554361	0.00041122804
5	1099999	1491.051297802977	2.208524254615
5	1100034	1491.087676726552	0.721089890597
5	1100037	1491.088907715237	0.001230988685
5	1100052	1491.129763136692	9.232363610327
5	1100081	1491.140398609694	2.21918341056
5	1100084	1491.140518617491	0.786151381586
5	1100109	1491.160741385492	2.194246829297
5	1100116	1491.185486469388	5.457953493513
5	1100123	1491.2024121802	1.381379966997
5	1100138	1491.214698988398	0.757145555372
5	1100163	1491.257782847351	3.949084982758
5	1100168	1491.260678728677	0.002895881326
5	1100171	1491.260772246978	9.3518301e-05
5	1100174	1491.263639253657	0.002867006679
5	1100187	1491.278438076566	3.019619189161
5	1100206	1491.314324937459	7.0269511046
5	1100209	1491.315501871492	0.775167147089
5	1100214	1491.31612554196	0.000623670468
5	1100261	1491.348120919891	0.786654322248
5	1100274	1491.35319434143	0.729136541148
5	1100283	1491.355889624457	0.002695283027
5	1100310	1491.432741711435	1.404249953661
5	1100349	1491.526301880086	7.074022482552
5	1100352	1491.528822619595	0.002520739509
5	1100379	1491.553757069529	5.432115733969
5	1100384	1491.555659775732	0.001902706203
5	1100409	1491.585751827541	0.030092051809
5	1100416	1491.593454485773	2.078485393034
5	1100455	1491.680301226135	0.781026319661
5	1100458	1491.68081894538	0.000517719245
5	1100481	1491.770075180768	1.513782243784
5	1100488	1491.771561501571	6.225654508178
5	1100495	1491.776952130008	0.00687694924
5	1100504	1491.779840665333	8.537408029088
5	1100549	1491.813111476789	0.724203761552
5	1100576	1491.82297795869	0.693214821998
5	1100607	1491.844363446533	0.021385487843
5	1100610	1491.844510917113	0.00014747058
5	1100621	1491.851877763378	0.007366846265
5	1100636	1491.861314770956	3.007197931721
5	1100659	1491.889846721739	0.704360252351
5	1100666	1491.893799372277	0.691387192077
5	1100685	1491.919756393626	3.686678794182
5	1100783	1492.053828134123	0.705707214232
5	1100830	1492.11445028286	3.618468332103
5	1100845	1492.151929843718	5.35978569069
5	1100856	1492.246617353552	1.519412056935
5	1100859	1492.246770185747	0.000152832195
5	1100866	1492.26730556404	0.738482944445
5	1100869	1492.269791210553	0.002485646513
5	1100872	1492.270123888263	0.00033267771
5	1100895	1492.344116196075	1.549795356877
5	1100914	1492.355995695397	2.987233645476
5	1100961	1492.512086548813	2.314927941118
5	1100988	1492.532122729108	0.020036180295
5	1101015	1492.558636420922	5.519047887484
5	1101046	1492.609871012227	2.359527358871
5	1101069	1492.628529310533	2.960627661982
5	1101082	1492.632297308801	0.022426296574
5	1101085	1492.633709339817	0.856757209809
5	1101088	1492.634002462756	0.001705153955
5	1101091	1492.635878375932	0.002169036115
5	1101116	1492.685903354282	1.634605551305
5	1101119	1492.687419194425	0.001515840143
5	1101146	1492.720734693403	3.926586594155
5	1101149	1492.720756332903	2.16395e-05
5	1101158	1492.724575369058	0.911463892269
5	1101179	1492.75316017056	1.612641553069
5	1101194	1492.864720354002	1.003405583046
5	1101197	1492.865628923654	0.000908569652
5	1101204	1492.886638993049	3.148553753478
5	1101243	1492.921192536731	1.001436143105
5	1101282	1492.999791088973	1.685466151514
5	1101308	1493.02590032949	2.460763608777
5	1101335	1493.07756012171	7.073712841574
5	1101358	1493.095242488226	1.662500776791
5	1101379	1493.102562920327	2.425687326243
5	1101388	1493.109893808768	0.95796396505
5	1101419	1493.140293514236	2.40202735767
5	1101470	1493.210857998755	8.435611708436
5	1101473	1493.211372261995	0.00051426324
5	1101488	1493.222707049384	0.011334787389
5	1101491	1493.223512822279	0.000805772895
5	1101512	1493.244375838573	2.363869558756
5	1101515	1493.245577990941	2.351315650495
5	1101540	1493.283646246355	0.725009825433
5	1101559	1493.305439514277	0.676910203744
5	1101566	1493.306745181172	1.535183679601
5	1101581	1493.310205601912	2.389053047551
5	1101588	1493.313949608858	0.003744006946
5	1101623	1493.350320135855	3.612733122683
5	1101630	1493.35383018036	1.573989515027
5	1101653	1493.362115001036	0.011794865181
5	1101656	1493.362965596348	0.000850595312
5	1101683	1493.369892473175	2.229493863481
5	1101716	1493.472552212288	0.585913219239
5	1101725	1493.475860683686	0.003308471398
5	1101738	1493.497745454485	1.603946082208
5	1101789	1493.59266179918	3.102649556589
5	1101802	1493.595247245564	0.595456156591
5	1101809	1493.600386965488	3.755928501623
5	1101816	1493.608783351891	2.330345275325
5	1101819	1493.608933159804	0.000149807913
5	1101878	1493.708226570198	1.654398436075
5	1101895	1493.783217110154	3.128657702361
5	1101928	1493.801588717606	0.691694908838
5	1101947	1493.886544345852	1.616420457589
5	1101958	1493.895632917882	0.755339403646
5	1101965	1493.9066500839	0.011017166018
5	1101984	1493.914036201384	0.007386117484
5	1101999	1493.921267305768	1.565271610371
5	1102049	1494.055918698363	0.81154285979
5	1102076	1494.142063955936	0.836624441659
5	1102083	1494.161267394713	0.847317785855
5	1102086	1494.162125389442	0.000857994729
5	1102129	1494.25029333831	1.529537005407
5	1102148	1494.28813427053	1.600715076105
5	1102167	1494.323556043258	0.953663570083
5	1102194	1494.355962979616	1.602802809056
5	1102207	1494.410170145422	1.544541221768
5	1102216	1494.413403452664	0.003233307242
5	1102235	1494.432661417416	2.542814695677
5	1102246	1494.453808487187	1.532615950456
5	1102313	1494.514413439609	3.250774185952
5	1102316	1494.514940522957	0.000527083348
5	1102335	1494.557324233712	5.413869449252
5	1102338	1494.557831024067	0.000506790355
5	1102349	1494.572900338397	0.963967178593
5	1102368	1494.606399206001	4.628153293547
5	1102499	1494.83163579256	3.238181306787
5	1102506	1494.833447111159	0.001811318599
5	1102513	1494.840198094272	0.006750983113
5	1102524	1494.842180706573	0.001982612301
5	1102527	1494.842489109354	0.000308402781
5	1102534	1494.847528498307	0.005039388953
5	1102541	1494.853503216992	4.693809101234
5	1102556	1494.863526579555	0.010023362563
5	1102559	1494.863682582932	0.000156003377
5	1102602	1494.960745754553	0.818681798617
5	1102649	1495.058048499407	2.333473130349
5	1102656	1495.107497967241	0.857204628931
5	1102667	1495.120061443991	0.831927173461
5	1102682	1495.133569767969	0.810013724711
5	1102721	1495.190052296626	0.776648843962
5	1102726	1495.191222035508	0.001169738882
5	1102729	1495.191619201334	1.715758517648
5	1102744	1495.201332255249	0.010110219741
5	1102773	1495.217349841102	0.763541353915
5	1102816	1495.32145498145	1.726207735886
5	1102819	1495.323408752307	0.001953770857
5	1102822	1495.323801622458	0.000392870151
5	1102829	1495.328598787367	1.728211821879
5	1102846	1495.347423203194	0.789592179127
5	1102867	1495.386415160822	4.070289618862
5	1102872	1495.388865279759	0.002450118937
5	1102877	1495.389119277646	0.000253997887
5	1102884	1495.425279633913	2.399379304423
5	1102899	1495.487819052195	2.410258930485
5	1102926	1495.611747041676	2.51650455345
5	1102941	1495.655383494543	10.485400601793
5	1102948	1495.658837953343	2.556275033016
5	1102951	1495.659714231373	0.00087627803
5	1103014	1495.747896293289	4.162144465748
5	1103033	1495.774212406968	0.910529824036
5	1103038	1495.774957256808	0.00074484984
5	1103055	1495.814824120872	1.758905422509
5	1103062	1495.819682979783	2.574104988842
5	1103093	1495.901104996279	3.368982267171
5	1103108	1495.932258256531	1.770132867089
5	1103111	1495.932638449638	0.000380193107
5	1103148	1495.985805619826	0.927757120419
5	1103165	1495.997138681458	0.889640714217
5	1103168	1495.997204873562	6.6192104e-05
5	1103186	1496.024178821173	8.876526007261
5	1103205	1496.05242716911	4.200549405732
5	1103212	1496.061425613127	0.008998444017
5	1103239	1496.102929039829	4.888230051431
5	1103242	1496.103588929637	0.000659889808
5	1103257	1496.113998771768	0.912666516519
5	1103264	1496.123347648025	0.009348876257
5	1103275	1496.133397553179	1.700736135763
5	1103290	1496.1849928664	0.967643025298
5	1103293	1496.185543879587	0.000551013187
5	1103308	1496.198963029865	8.937444289305
5	1103335	1496.228337339772	1.713396816815
5	1103390	1496.32299163721	0.933872359564
5	1103421	1496.346936571822	1.740537365821
5	1103438	1496.366568003996	2.658341433798
5	1103443	1496.368109921091	0.001541917095
5	1103448	1496.369225074946	0.001115153855
5	1103457	1496.372889288933	0.885070236738
5	1103496	1496.43180170653	0.776418211987
5	1103511	1496.444496413528	2.642907695922
5	1103530	1496.457687654476	0.797973423103
5	1103537	1496.471231297927	2.584686952075
5	1103540	1496.472564146527	0.0013328486
5	1103545	1496.473443525871	0.000879379344
5	1103552	1496.479269239681	0.00582571381
5	1103557	1496.480541053294	0.001271813613
5	1103564	1496.482713884512	2.568677683128
5	1103587	1496.503984487994	5.635319955669
5	1103610	1496.521620100962	2.600352795194
5	1103621	1496.532589663177	1.68506116487
5	1103652	1496.568019889253	5.68824028503
5	1103655	1496.568747932247	0.000728042994
5	1103660	1496.573943701633	0.005195769386
5	1103667	1496.574529563719	0.000585862086
5	1103680	1496.582762142913	0.76307916313
5	1103687	1496.585241130908	0.002478987995
5	1103744	1496.648078313389	1.687332558836
5	1103773	1496.671159457907	4.037156995151
5	1103820	1496.731738491576	0.74593287175
5	1103823	1496.732286466192	0.000547974616
5	1103842	1496.746845955973	0.7226671348
5	1103847	1496.748159084536	3.385193488188
5	1103872	1496.777452327426	0.716026714299
5	1103907	1496.817442249615	0.631898370028
5	1103922	1496.829005459454	3.236343660274
5	1103929	1496.833124602074	0.634161572209
5	1103948	1496.870604366851	1.546802744393
5	1103959	1496.87667477092	0.006070404069
5	1103974	1496.937551190288	7.870096961324
5	1103977	1496.938618654552	0.001067464264
5	1103992	1496.956286803527	0.633295166317
5	1103995	1496.958349459838	0.002062656311
5	1104002	1496.961882523315	0.003533063477
5	1104060	1497.013250027432	3.230032917278
5	1104071	1497.020571379063	9.394591556043
5	1104074	1497.021835769715	0.001264390652
5	1104077	1497.023111103611	0.001275333896
5	1104102	1497.10606893317	4.859298747423
5	1104115	1497.12144064129	0.640899587996
5	1104126	1497.134703557458	0.013262916168
5	1104169	1497.238945962167	1.491049668878
5	1104180	1497.272606398402	4.049093576123
5	1104267	1497.424636894364	10.306664972586
5	1104338	1497.526011560117	2.392441792148
5	1104353	1497.595727714933	0.847568630397
5	1104372	1497.630014731226	2.438395529892
5	1104383	1497.641561131343	1.537972201706
5	1104426	1497.725609814139	0.892485212065
5	1104477	1497.856915209954	2.431635576041
5	1104492	1497.881647228779	0.919764705464
5	1104511	1497.912421903919	1.539532614986
5	1104518	1497.921158665188	1.551933590242
5	1104539	1497.92971139636	0.017289492441
5	1104554	1497.935132945646	5.820682662786
5	1104557	1497.935229682494	0.014071017306
5	1104570	1497.963549544193	0.950299516761
5	1104589	1497.998076306765	1.566274600235
5	1104643	1498.061064215186	1.557079727192
5	1104650	1498.062156294231	1.540536193269
5	1104661	1498.065828228232	0.004764013046
5	1104688	1498.079234622692	0.017078328461
5	1104715	1498.093595484068	5.749479287993
5	1104718	1498.093765397776	0.000169913708
5	1104721	1498.093896313117	0.000130915341
5	1104728	1498.095436657398	0.856490695231
5	1104751	1498.138441471951	1.553200341043
5	1104770	1498.16326986754	1.515191554151
5	1104813	1498.191136626708	0.027866759168
5	1104844	1498.231427019102	1.560267561195
5	1104891	1498.265488796412	2.26828392285
5	1104902	1498.274266717815	0.748255157698
5	1104913	1498.305464505974	1.558618550001
5	1104928	1498.311043848025	0.005579342051
5	1104931	1498.311155512684	0.000111664659
5	1104964	1498.34649387372	3.990530894104
5	1104969	1498.346978814597	0.000484940877
5	1104980	1498.35645600718	0.009477192583
5	1104987	1498.360603615916	0.764875900983
5	1105010	1498.385991709864	1.608539382438
5	1105017	1498.389232284631	0.759217553405
5	1105020	1498.390154744705	0.000922460074
5	1105023	1498.391006513706	0.000851769001
5	1105026	1498.391360316793	0.000353803087
5	1105041	1498.411973768672	2.288626120647
5	1105072	1498.447676177893	4.949930723408
5	1105087	1498.461996040753	0.01431986286
5	1105110	1498.523490273581	0.797880459442
5	1105121	1498.532480221636	1.655805450716
5	1105126	1498.535803385989	0.003323164353
5	1105159	1498.561964613114	0.70504940316
5	1105194	1498.608620058658	0.678908662298
5	1105207	1498.613360744311	7.257471119854
5	1105228	1498.626999535132	2.182503121604
5	1105247	1498.669533558201	0.671457251436
5	1105262	1498.679884693452	2.222197038976
5	1105269	1498.688321684555	0.008436991103
5	1105304	1498.743277300431	0.664042677739
5	1105335	1498.830350181064	0.736453867947
5	1105346	1498.835599408175	0.005249227111
5	1105397	1498.86276996625	0.724328494299
5	1105444	1498.938470544048	0.707043524946
5	1105475	1498.976985168086	1.552348273722
5	1105478	1498.980872059701	0.003886891615
5	1105500	1499.035566466123	2.303279999931
5	1105503	1499.036011819026	0.000445352903
5	1105510	1499.037940977143	0.001929158117
5	1105513	1499.038855562823	0.00091458568
5	1105548	1499.100306143865	7.939564758373
5	1105567	1499.110210372545	0.718850055752
5	1105580	1499.113569484375	1.472008353032
5	1105589	1499.115635474936	0.729643765072
5	1105616	1499.127230252484	0.017019879939
5	1105631	1499.13176032815	2.998362774971
5	1105650	1499.184866503498	8.72962499267
5	1105673	1499.253174152817	3.024836813045
5	1105692	1499.260979410973	2.322360756421
5	1105695	1499.26146292147	0.000483510497
5	1105714	1499.273735535012	1.392088306233
5	1105725	1499.278127644722	0.742324258733
5	1105732	1499.279240015032	3.667492973356
5	1105735	1499.279426439883	0.000186424851
5	1105770	1499.31170770167	0.703087643012
5	1105789	1499.338293627224	1.40306394473
5	1105800	1499.373253282018	1.438120336372
5	1105831	1499.437875812823	0.768342254622
5	1105846	1499.445969992663	2.422858889052
5	1105853	1499.449170021177	0.760848336622
5	1105876	1499.484250661035	2.349547103577
5	1105883	1499.489386071234	0.005135410199
5	1105910	1499.509295619785	1.443467391553
5	1105945	1499.617862636747	2.345256238345
5	1105952	1499.623930995105	0.78833158693
5	1105959	1499.625934853112	0.002003858007
5	1105970	1499.63930724358	3.738202247301
5	1105993	1499.659308291898	7.978489346518
5	1106008	1499.67228834498	1.481151718272
5	1106035	1499.732388043071	6.378557862711
5	1106046	1499.762842762432	0.781970702731
5	1106055	1499.767219360275	0.004376597843
5	1106076	1499.782391915208	1.516903118796
5	1106079	1499.784052061147	0.001660145939
5	1106082	1499.78412839771	7.6336563e-05
5	1106089	1499.787037247608	0.019817887333
5	1106100	1499.803311519868	1.529044802053
5	1106107	1499.812808377251	1.501652864567
5	1106114	1499.817598384083	0.004790006832
5	1106121	1499.818410626739	0.779555063916
5	1106124	1499.818746621055	0.000335994316
5	1106159	1499.850460408227	0.750154264362
5	1106170	1499.862022673466	0.748453189091
5	1106195	1499.895631102361	1.483657333689
5	1106208	1499.944087422447	1.482091381694
5	1106223	1499.975841628669	3.146836169215
5	1106234	1499.98249502691	1.459004753329
5	1106249	1499.989197764649	0.736023611832
5	1106264	1499.9971228612	4.649699658006

