version 2
run scenario1-0-20211222-17:37:02-12112
attr configname scenario1
attr datetime 20211222-17:37:02
attr experiment scenario1
attr inifile omnetpp.ini
attr iterationvars ""
attr iterationvarsf ""
attr measurement ""
attr network Network
attr processid 12112
attr repetition 0
attr replication #0
attr resultdir results
attr runnumber 0
attr seedset 0
param **.server.p1 0.2
param **.server.p2 0.385
param **.clients.num_clients 60
param **.processor.service_rate 1000
param **.disk.service_rate 300
param **.webServer.serv_rate_w 80
param **.clients.timeWindow 5s

vector 0 Network.clients pkt_counter:vector ETV
attr source pkt_counter_s
vector 1 Network.server.processor processor_backlog:vector ETV
attr source processor_backlog_s
vector 2 Network.server.disk disk_backlog:vector ETV
attr source disk_backlog_s
vector 3 Network.webServer wserver_backlog:vector ETV
attr source wserver_backlog_s
vector 4 Network.clients interarrival_time:vector ETV
attr source interarrival_time_s
vector 5 Network.clients response_time:vector ETV
attr source response_time_s
4	371016	500.002995476582	0.006258818453
4	371023	500.011968452882	0.0089729763
4	371038	500.018141916321	0.006173463439
4	371057	500.059453500259	0.041311583938
4	371064	500.063656290119	0.00420278986
4	371071	500.068415828382	0.004759538263
4	371082	500.08137189516	0.012956066778
4	371145	500.154470735171	0.073098840011
4	371156	500.16164764878	0.007176913609
4	371163	500.165159885821	0.003512237041
4	371174	500.174438675766	0.009278789945
4	371189	500.181822371442	0.007383695676
4	371192	500.182428703737	0.000606332295
4	371307	500.320764812284	0.138336108547
4	371330	500.37752206907	0.056757256786
4	371357	500.435951477534	0.058429408464
4	371360	500.438408471152	0.002456993618
4	371367	500.445323670334	0.006915199182
4	371386	500.456098128429	0.010774458095
4	371401	500.467284030868	0.011185902439
4	371452	500.550360926426	0.083076895558
4	371495	500.576060289818	0.025699363392
4	371506	500.593676167222	0.017615877404
4	371533	500.621631058117	0.027954890895
4	371548	500.629883304797	0.00825224668
4	371579	500.640363349563	0.010480044766
4	371594	500.645272535333	0.00490918577
4	371597	500.647080669961	0.001808134628
4	371632	500.657557311414	0.010476641453
4	371667	500.682569084438	0.025011773024
4	371690	500.6945578953	0.011988810862
4	371705	500.705976291314	0.011418396014
4	371722	500.712175021661	0.006198730347
4	371727	500.712394595577	0.000219573916
4	371738	500.730644129155	0.018249533578
4	371793	500.77562512453	0.044980995375
4	371796	500.776341730859	0.000716606329
4	371803	500.780500759438	0.004159028579
4	371806	500.780914365526	0.000413606088
4	371825	500.836157104372	0.055242738846
4	371886	500.940401775278	0.104244670906
4	371893	500.942452583333	0.002050808055
4	371906	500.946807587704	0.004355004371
4	371909	500.947124000675	0.000316412971
4	371912	500.947608602776	0.000484602101
4	371915	500.948225951316	0.00061734854
4	371946	500.978493662102	0.030267710786
4	371971	501.006799704209	0.028306042107
4	371974	501.007009927637	0.000210223428
4	371981	501.049277016562	0.042267088925
4	371996	501.071160049207	0.021883032645
4	372011	501.086953091857	0.01579304265
4	372070	501.171168642292	0.084215550435
4	372083	501.173515013683	0.002346371391
4	372124	501.215827045282	0.042312031599
4	372223	501.366407380978	0.150580335696
4	372242	501.420538829126	0.054131448148
4	372253	501.430104716905	0.009565887779
4	372276	501.470996772694	0.040892055789
4	372283	501.475217678391	0.004220905697
4	372318	501.554219545398	0.079001867007
4	372321	501.55580171942	0.001582174022
4	372348	501.58425595018	0.02845423076
4	372359	501.594699594865	0.010443644685
4	372390	501.643009294948	0.048309700083
4	372457	501.72650993339	0.083500638442
4	372496	501.849207857168	0.122697923778
4	372499	501.849550196719	0.000342339551
4	372516	501.854834689087	0.005284492368
4	372541	501.908934552132	0.054099863045
4	372580	501.943199757305	0.034265205173
4	372587	501.946039330345	0.00283957304
4	372602	501.966538947052	0.020499616707
4	372641	501.99505461759	0.028515670538
4	372655	502.00094126669	0.0058866491
4	372662	502.023096201551	0.022154934861
4	372665	502.023426768504	0.000330566953
4	372712	502.08562438852	0.062197620016
4	372811	502.246642440044	0.161018051524
4	372820	502.252012182738	0.005369742694
4	372825	502.252913483081	0.000901300343
4	372856	502.274553798119	0.021640315038
4	372863	502.280011379121	0.005457581002
4	372880	502.28468099805	0.004669618929
4	372885	502.285478832036	0.000797833986
4	372904	502.34548374538	0.060004913344
4	372907	502.34677706582	0.00129332044
4	372928	502.357302213511	0.010525147691
4	372931	502.358000489918	0.000698276407
4	372944	502.365079141299	0.007078651381
4	372959	502.426300228317	0.061221087018
4	372998	502.489145994435	0.062845766118
4	373001	502.489938282807	0.000792288372
4	373022	502.50189818687	0.011959904063
4	373025	502.505463171403	0.003564984533
4	373038	502.509428926647	0.003965755244
4	373055	502.515976241322	0.006547314675
4	373060	502.517035151517	0.001058910195
4	373091	502.542505716183	0.025470564666
4	373094	502.543209416985	0.000703700802
4	373105	502.578694341608	0.035484924623
4	373112	502.581486305517	0.002791963909
4	373115	502.582473332212	0.000987026695
4	373118	502.583228349263	0.000755017051
4	373125	502.586516885862	0.003288536599
4	373140	502.60871088507	0.022193999208
4	373187	502.631056069705	0.022345184635
4	373202	502.644254356439	0.013198286734
4	373209	502.652014282574	0.007759926135
4	373220	502.682219747443	0.030205464869
4	373245	502.72248806073	0.040268313287
4	373274	502.745041838222	0.022553777492
4	373277	502.745165709893	0.000123871671
4	373282	502.747044633631	0.001878923738
4	373287	502.749453868754	0.002409235123
4	373378	502.852006585268	0.102552716514
4	373385	502.855271365062	0.003264779794
4	373396	502.861032465724	0.005761100662
4	373399	502.861808659702	0.000776193978
4	373410	502.886290114736	0.024481455034
4	373417	502.892566049228	0.006275934492
4	373464	502.947517451596	0.054951402368
4	373503	502.992059892864	0.044542441268
4	373521	503.022373605709	0.030313712845
4	373556	503.059588429812	0.037214824103
4	373567	503.076020489265	0.016432059453
4	373578	503.08724094668	0.011220457415
4	373583	503.08763158229	0.00039063561
4	373688	503.30168262115	0.21405103886
4	373699	503.331605052221	0.029922431071
4	373706	503.345755249811	0.01415019759
4	373761	503.454475321907	0.108720072096
4	373776	503.496483210636	0.042007888729
4	373787	503.500528009413	0.004044798777
4	373802	503.569814367624	0.069286358211
4	373805	503.570446699045	0.000632331421
4	373832	503.586109564631	0.015662865586
4	373863	503.646069806868	0.059960242237
4	373870	503.653868715781	0.007798908913
4	373881	503.686167933786	0.032299218005
4	373892	503.699500843601	0.013332909815
4	373895	503.700219886495	0.000719042894
4	373942	503.770203303248	0.069983416753
4	373965	503.786447513926	0.016244210678
4	373976	503.790416355557	0.003968841631
4	374003	503.803579623949	0.013163268392
4	374034	503.844843707798	0.041264083849
4	374041	503.851020785695	0.006177077897
4	374044	503.852528764522	0.001507978827
4	374047	503.853334595443	0.000805830921
4	374058	503.870854115454	0.017519520011
4	374097	503.980789685557	0.109935570103
4	374133	504.020058500566	0.039268815009
4	374146	504.031497636374	0.011439135808
4	374181	504.062029144165	0.030531507791
4	374212	504.091723134908	0.029693990743
4	374215	504.092214421074	0.000491286166
4	374226	504.111056531651	0.018842110577
4	374229	504.112030819237	0.000974287586
4	374240	504.117177828873	0.005147009636
4	374243	504.117313532071	0.000135703198
4	374274	504.167997043474	0.050683511403
4	374349	504.373408074306	0.205411030832
4	374404	504.455326156826	0.08191808252
4	374473	504.505061871719	0.049735714893
4	374476	504.506022465445	0.000960593726
4	374481	504.507133173868	0.001110708423
4	374488	504.510206056043	0.003072882175
4	374503	504.55793443749	0.047728381447
4	374546	504.618877775441	0.060943337951
4	374585	504.646250675584	0.027372900143
4	374624	504.743664363916	0.097413688332
4	374655	504.793714802709	0.050050438793
4	374658	504.793783722659	6.891995e-05
4	374663	504.795511382946	0.001727660287
4	374688	504.816658214328	0.021146831382
4	374695	504.817348777903	0.000690563575
4	374714	504.83039935563	0.013050577727
4	374719	504.831791665325	0.001392309695
4	374724	504.832799364859	0.001007699534
4	374743	504.839023648616	0.006224283757
4	374770	504.870968498395	0.031944849779
4	374801	504.979923245844	0.108954747449
4	374828	505.019286208424	0.03936296258
4	374835	505.023530292098	0.004244083674
4	374850	505.03649258996	0.012962297862
4	374857	505.058032885947	0.021540295987
4	374876	505.114021948574	0.055989062627
4	374883	505.135211216346	0.021189267772
4	374918	505.182370495906	0.04715927956
4	374929	505.192156740253	0.009786244347
4	374944	505.208999595475	0.016842855222
4	374947	505.209094301705	9.470623e-05
4	374950	505.212120047325	0.00302574562
4	374965	505.224087139241	0.011967091916
4	374994	505.274347146435	0.050260007194
4	375027	505.332203445687	0.057856299252
4	375042	505.345837429309	0.013633983622
4	375053	505.354315777444	0.008478348135
4	375068	505.384383535538	0.030067758094
4	375087	505.403232365487	0.018848829949
4	375090	505.404023372483	0.000791006996
4	375093	505.404971706411	0.000948333928
4	375148	505.488133966185	0.083162259774
4	375167	505.51276992556	0.024635959375
4	375178	505.517643505351	0.004873579791
4	375185	505.521626995251	0.0039834899
4	375218	505.554664717974	0.033037722723
4	375243	505.622195690966	0.067530972992
4	375254	505.647620979982	0.025425289016
4	375277	505.712940034484	0.065319054502
4	375292	505.724811255611	0.011871221127
4	375313	505.784259516556	0.059448260945
4	375316	505.786620612164	0.002361095608
4	375341	505.813210336466	0.026589724302
4	375348	505.815553498194	0.002343161728
4	375359	505.820473245281	0.004919747087
4	375390	505.878469671118	0.057996425837
4	375401	505.88477652235	0.006306851232
4	375404	505.886156348054	0.001379825704
4	375411	505.890219393759	0.004063045705
4	375414	505.892019878548	0.001800484789
4	375433	505.914822279299	0.022802400751
4	375452	505.926838691534	0.012016412235
4	375467	505.956440172035	0.029601480501
4	375529	506.060042676491	0.103602504456
4	375540	506.094154379363	0.034111702872
4	375575	506.152649340804	0.058494961441
4	375578	506.154079255608	0.001429914804
4	375589	506.1613215185	0.007242262892
4	375640	506.237536541379	0.076215022879
4	375679	506.302940950569	0.06540440919
4	375694	506.317481322081	0.014540371512
4	375699	506.318131976819	0.000650654738
4	375706	506.319486126898	0.001354150079
4	375711	506.321600210204	0.002114083306
4	375718	506.328272609665	0.006672399461
4	375729	506.331577728131	0.003305118466
4	375756	506.370759794905	0.039182066774
4	375759	506.372104851388	0.001345056483
4	375774	506.379183231809	0.007078380421
4	375789	506.400692462243	0.021509230434
4	375796	506.406877924187	0.006185461944
4	375799	506.407935964005	0.001058039818
4	375818	506.426494666386	0.018558702381
4	375821	506.426542324575	4.7658189e-05
4	375890	506.480563276366	0.054020951791
4	375899	506.488853270243	0.008289993877
4	375910	506.496694489746	0.007841219503
4	375929	506.58016204333	0.083467553584
4	375932	506.580567330877	0.000405287547
4	375937	506.582546849764	0.001979518887
4	375940	506.583896673081	0.001349823317
4	375943	506.583992153103	9.5480022e-05
4	375948	506.585345405421	0.001353252318
4	376015	506.705287572045	0.119942166624
4	376018	506.705938600883	0.000651028838
4	376021	506.70613047966	0.000191878777
4	376028	506.709251663029	0.003121183369
4	376091	506.779541133763	0.070289470734
4	376138	506.849469910123	0.06992877636
4	376141	506.849505020871	3.5110748e-05
4	376180	506.885208191218	0.035703170347
4	376207	506.905956137976	0.020747946758
4	376222	506.913647367561	0.007691229585
4	376233	506.919131937124	0.005484569563
4	376240	506.921345676617	0.002213739493
4	376263	506.95148376672	0.030138090103
4	376274	506.958158035203	0.006674268483
4	376293	506.967827797772	0.009669762569
4	376302	506.970638428086	0.002810630314
4	376396	507.069218505367	0.098580077281
4	376425	507.100629273593	0.031410768226
4	376460	507.136129571354	0.035500297761
4	376475	507.140568830929	0.004439259575
4	376492	507.153653779157	0.013084948228
4	376505	507.157868266577	0.00421448742
4	376518	507.199613410842	0.041745144265
4	376563	507.227634630722	0.02802121988
4	376578	507.236730020675	0.009095389953
4	376593	507.255803343021	0.019073322346
4	376598	507.258723972134	0.002920629113
4	376619	507.27122748911	0.012503516976
4	376622	507.271926266834	0.000698777724
4	376633	507.274896295167	0.002970028333
4	376636	507.275733372207	0.00083707704
4	376647	507.309259983602	0.033526611395
4	376676	507.349635855868	0.040375872266
4	376679	507.350152336178	0.00051648031
4	376682	507.351313580375	0.001161244197
4	376687	507.354486956522	0.003173376147
4	376694	507.36874964391	0.014262687388
4	376757	507.488404279661	0.119654635751
4	376764	507.492538861762	0.004134582101
4	376767	507.492945700607	0.000406838845
4	376778	507.497573530344	0.004627829737
4	376845	507.632432889158	0.134859358814
4	376848	507.634533186956	0.002100297798
4	376919	507.848831908752	0.214298721796
4	376922	507.8489059232	7.4014448e-05
4	376937	507.866180799093	0.017274875893
4	376992	507.909660281138	0.043479482045
4	377029	507.952679209348	0.04301892821
4	377042	507.962170249914	0.009491040566
4	377045	507.96217417261	3.922696e-06
4	377068	507.987007292434	0.024833119824
4	377098	508.005925717443	0.018918425009
4	377105	508.010935219802	0.005009502359
4	377116	508.016268940915	0.005333721113
4	377135	508.045403956728	0.029135015813
4	377142	508.048902569395	0.003498612667
4	377157	508.064708188675	0.01580561928
4	377172	508.072533080366	0.007824891691
4	377177	508.072786331624	0.000253251258
4	377184	508.076866223183	0.004079891559
4	377197	508.088008422607	0.011142199424
4	377212	508.098217992321	0.010209569714
4	377223	508.117822181794	0.019604189473
4	377230	508.120736553394	0.0029143716
4	377233	508.1217593631	0.001022809706
4	377252	508.133045956192	0.011286593092
4	377267	508.176091322616	0.043045366424
4	377270	508.177719410657	0.001628088041
4	377273	508.179072778356	0.001353367699
4	377288	508.2133151369	0.034242358544
4	377299	508.216123764452	0.002808627552
4	377314	508.221520891997	0.005397127545
4	377349	508.266303211329	0.044782319332
4	377352	508.26727370091	0.000970489581
4	377371	508.328647792786	0.061374091876
4	377386	508.335985560306	0.00733776752
4	377395	508.344452857198	0.008467296892
4	377432	508.387842024349	0.043389167151
4	377435	508.38856871425	0.000726689901
4	377452	508.423764005333	0.035195291083
4	377481	508.448401023693	0.02463701836
4	377504	508.473228657315	0.024827633622
4	377527	508.496574382992	0.023345725677
4	377534	508.501009557256	0.004435174264
4	377605	508.614593707264	0.113584150008
4	377624	508.638956268138	0.024362560874
4	377627	508.641010897003	0.002054628865
4	377634	508.643688751047	0.002677854044
4	377637	508.645145764519	0.001457013472
4	377658	508.677925779705	0.032780015186
4	377661	508.678444041722	0.000518262017
4	377666	508.679886315665	0.001442273943
4	377685	508.71591909291	0.036032777245
4	377692	508.735900933137	0.019981840227
4	377699	508.750729794519	0.014828861382
4	377726	508.793506175991	0.042776381472
4	377749	508.809356759893	0.015850583902
4	377816	508.874694762969	0.065338003076
4	377823	508.904991736956	0.030296973987
4	377860	508.943293989351	0.038302252395
4	377863	508.946443716528	0.003149727177
4	377876	508.953140610131	0.006696893603
4	377879	508.955670292232	0.002529682101
4	377898	508.984906635995	0.029236343763
4	377916	509.013404240231	0.028497604236
4	377943	509.023275025752	0.009870785521
4	377946	509.023380366218	0.000105340466
4	377973	509.036686449018	0.0133060828
4	377996	509.110803237883	0.074116788865
4	378019	509.130090540797	0.019287302914
4	378030	509.133614218077	0.00352367728
4	378037	509.134586631459	0.000972413382
4	378044	509.138424383415	0.003837751956
4	378055	509.14896491329	0.010540529875
4	378082	509.169268407895	0.020303494605
4	378085	509.170175748354	0.000907340459
4	378088	509.172368396695	0.002192648341
4	378133	509.207330544139	0.034962147444
4	378136	509.207944153734	0.000613609595
4	378141	509.208401946248	0.000457792514
4	378148	509.217708824946	0.009306878698
4	378177	509.255104383375	0.037395558429
4	378198	509.267621425749	0.012517042374
4	378241	509.299594600266	0.031973174517
4	378244	509.300816575713	0.001221975447
4	378247	509.301571764899	0.000755189186
4	378252	509.305815062512	0.004243297613
4	378265	509.355477249252	0.04966218674
4	378276	509.36303429158	0.007557042328
4	378291	509.387979454754	0.024945163174
4	378294	509.389581649875	0.001602195121
4	378307	509.394436771902	0.004855122027
4	378316	509.395250307055	0.000813535153
4	378335	509.402464390003	0.007214082948
4	378346	509.40738120586	0.004916815857
4	378349	509.407937210375	0.000556004515
4	378364	509.412638378244	0.004701167869
4	378377	509.414611008478	0.001972630234
4	378386	509.417376616776	0.002765608298
4	378477	509.616763833134	0.199387216358
4	378492	509.630598206487	0.013834373353
4	378495	509.631466865083	0.000868658596
4	378518	509.661814842847	0.030347977764
4	378555	509.695929192383	0.034114349536
4	378576	509.699796865764	0.003867673381
4	378593	509.70296881835	0.003171952586
4	378634	509.742129112539	0.039160294189
4	378641	509.742797039134	0.000667926595
4	378648	509.745841069663	0.003044030529
4	378667	509.763540345012	0.017699275349
4	378726	509.804190195788	0.040649850776
4	378765	509.865963708587	0.061773512799
4	378778	509.869476232183	0.003512523596
4	378781	509.869667960916	0.000191728733
4	378784	509.870382877015	0.000714916099
4	378799	509.879942935177	0.009560058162
4	378824	509.893206837701	0.013263902524
4	378839	509.946234693967	0.053027856266
4	378902	509.98985438145	0.043619687483
4	378911	509.995083794516	0.005229413066
4	378914	509.995509137717	0.000425343201
4	378919	509.996428022808	0.000918885091
4	378986	510.077954196332	0.081526173524
4	379021	510.099283508663	0.021329312331
4	379036	510.107549492031	0.008265983368
4	379051	510.121853363597	0.014303871566
4	379058	510.132795106188	0.010941742591
4	379089	510.164775002651	0.031979896463
4	379108	510.175692770845	0.010917768194
4	379111	510.176118615239	0.000425844394
4	379138	510.198300288037	0.022181672798
4	379181	510.23163305555	0.033332767513
4	379188	510.236338115509	0.004705059959
4	379207	510.25651407128	0.020175955771
4	379214	510.257888378874	0.001374307594
4	379257	510.338742477175	0.080854098301
4	379268	510.352098085837	0.013355608662
4	379307	510.369568029297	0.01746994346
4	379314	510.370362835628	0.000794806331
4	379325	510.37942792131	0.009065085682
4	379344	510.406272966963	0.026845045653
4	379359	510.412861785919	0.006588818956
4	379374	510.424616832913	0.011755046994
4	379379	510.426136986153	0.00152015324
4	379416	510.519739422633	0.09360243648
4	379425	510.530244217105	0.010504794472
4	379440	510.535102337484	0.004858120379
4	379465	510.561578640487	0.026476303003
4	379488	510.575421554156	0.013842913669
4	379499	510.588470398757	0.013048844601
4	379508	510.590236555665	0.001766156908
4	379511	510.591007439734	0.000770884069
4	379520	510.59467728044	0.003669840706
4	379579	510.702472221784	0.107794941344
4	379590	510.74965851678	0.047186294996
4	379593	510.749805824849	0.000147308069
4	379596	510.750425062845	0.000619237996
4	379603	510.752611273881	0.002186211036
4	379622	510.821199049944	0.068587776063
4	379739	511.027334693437	0.206135643493
4	379752	511.047272373211	0.019937679774
4	379755	511.047789369046	0.000516995835
4	379776	511.095127603087	0.047338234041
4	379783	511.105342157322	0.010214554235
4	379826	511.162079889037	0.056737731715
4	379829	511.163147008732	0.001067119695
4	379856	511.182407045209	0.019260036477
4	379867	511.216964227122	0.034557181913
4	379878	511.256343676675	0.039379449553
4	379913	511.324638456863	0.068294780188
4	379940	511.400730929532	0.076092472669
4	379947	511.401840734932	0.0011098054
4	379950	511.402208604505	0.000367869573
4	379953	511.4022126899	4.085395e-06
4	380000	511.493550948155	0.091338258255
4	380035	511.519872123648	0.026321175493
4	380038	511.520202131735	0.000330008087
4	380061	511.531869044193	0.011666912458
4	380088	511.552181913284	0.020312869091
4	380103	511.558337033707	0.006155120423
4	380118	511.564012300784	0.005675267077
4	380125	511.568238618853	0.004226318069
4	380148	511.586219428545	0.017980809692
4	380187	511.703560714055	0.11734128551
4	380190	511.704968156144	0.001407442089
4	380193	511.705311968652	0.000343812508
4	380208	511.747136647254	0.041824678602
4	380223	511.776273368387	0.029136721133
4	380292	511.8768903346	0.100616966213
4	380295	511.87837000235	0.00147966775
4	380302	511.88168050067	0.00331049832
4	380339	511.921207132246	0.039526631576
4	380350	511.927947946323	0.006740814077
4	380365	511.952059619505	0.024111673182
4	380372	511.958697253837	0.006637634332
4	380391	511.974877525782	0.016180271945
4	380414	511.98282482451	0.007947298728
4	380444	512.044458607541	0.061633783031
4	380455	512.061415083228	0.016956475687
4	380498	512.170421706311	0.109006623083
4	380505	512.17120171313	0.000780006819
4	380594	512.25036049369	0.07915878056
4	380597	512.252481239792	0.002120746102
4	380614	512.259529814196	0.007048574404
4	380637	512.271903064816	0.01237325062
4	380668	512.294599481654	0.022696416838
4	380673	512.296918529653	0.002319047999
4	380682	512.302023412502	0.005104882849
4	380689	512.304249418219	0.002226005717
4	380706	512.315608950634	0.011359532415
4	380731	512.331040501015	0.015431550381
4	380762	512.383545176375	0.05250467536
4	380817	512.456378683225	0.07283350685
4	380844	512.486080599015	0.02970191579
4	380851	512.489482639605	0.00340204059
4	380890	512.553472044756	0.063989405151
4	380901	512.55796447544	0.004492430684
4	380908	512.562662683506	0.004698208066
4	380911	512.563456435747	0.000793752241
4	380918	512.567276025363	0.003819589616
4	380957	512.636783802409	0.069507777046
4	380960	512.637849561051	0.001065758642
4	380977	512.658738822075	0.020889261024
4	380986	512.660955829881	0.002217007806
4	380997	512.676345162273	0.015389332392
4	381008	512.691556793128	0.015211630855
4	381019	512.72950167259	0.037944879462
4	381058	512.797189634018	0.067687961428
4	381117	512.899706009885	0.102516375867
4	381132	512.913893010133	0.014187000248
4	381147	512.922404497188	0.008511487055
4	381158	512.943832420404	0.021427923216
4	381161	512.944398363601	0.000565943197
4	381188	512.979113872148	0.034715508547
4	381227	512.99184727353	0.012733401382
4	381269	513.01901649873	0.0271692252
4	381280	513.027043003561	0.008026504831
4	381283	513.027809164767	0.000766161206
4	381322	513.091139896539	0.063330731772
4	381353	513.115052152409	0.02391225587
4	381356	513.118987333435	0.003935181026
4	381383	513.128959614319	0.009972280884
4	381404	513.160122683669	0.03116306935
4	381407	513.160693989235	0.000571305566
4	381420	513.164150999857	0.003457010622
4	381425	513.165879298379	0.001728298522
4	381436	513.171619110455	0.005739812076
4	381445	513.173801227046	0.002182116591
4	381492	513.255894704629	0.082093477583
4	381519	513.282775486313	0.026880781684
4	381526	513.283943496114	0.001168009801
4	381545	513.321738799238	0.037795303124
4	381576	513.366912689518	0.04517389028
4	381607	513.400897228589	0.033984539071
4	381638	513.453821540205	0.052924311616
4	381645	513.45622195407	0.002400413865
4	381652	513.461191320133	0.004969366063
4	381667	513.46719593286	0.006004612727
4	381706	513.551747988698	0.084552055838
4	381761	513.694521582713	0.142773594015
4	381782	513.706243176019	0.011721593306
4	381787	513.708166685278	0.001923509259
4	381802	513.716400936938	0.00823425166
4	381821	513.729849934083	0.013448997145
4	381832	513.756642282871	0.026792348788
4	381835	513.758390805181	0.00174852231
4	381838	513.758697001728	0.000306196547
4	381861	513.769288756425	0.010591754697
4	381874	513.776087817986	0.006799061561
4	381877	513.776470875856	0.00038305787
4	381880	513.77689095963	0.000420083774
4	381883	513.777317351885	0.000426392255
4	381920	513.842812023137	0.065494671252
4	381955	513.861825251696	0.019013228559
4	382026	513.986687452635	0.124862200939
4	382033	513.990536540937	0.003849088302
4	382043	514.055281713867	0.06474517293
4	382070	514.101176394296	0.045894680429
4	382085	514.134583194766	0.03340680047
4	382096	514.141436888589	0.006853693823
4	382119	514.161788425861	0.020351537272
4	382122	514.162320250859	0.000531824998
4	382153	514.228156891656	0.065836640797
4	382240	514.416364085275	0.188207193619
4	382247	514.421773789997	0.005409704722
4	382286	514.493966864125	0.072193074128
4	382289	514.495412020123	0.001445155998
4	382296	514.498959759356	0.003547739233
4	382391	514.646093251734	0.147133492378
4	382422	514.767567783971	0.121474532237
4	382437	514.774810213925	0.007242429954
4	382446	514.780013740554	0.005203526629
4	382529	514.897750160198	0.117736419644
4	382538	514.90179110537	0.004040945172
4	382563	514.914174057925	0.012382952555
4	382596	514.995827225843	0.081653167918
4	382609	515.001043463851	0.005216238008
4	382614	515.001428530952	0.000385067101
4	382619	515.004396270531	0.002967739579
4	382666	515.059223998745	0.054827728214
4	382679	515.07012320358	0.010899204835
4	382710	515.091983996987	0.021860793407
4	382735	515.148906082813	0.056922085826
4	382740	515.149870387602	0.000964304789
4	382771	515.185653789683	0.035783402081
4	382774	515.186080377875	0.000426588192
4	382793	515.226196073357	0.040115695482
4	382804	515.231101581697	0.00490550834
4	382851	515.282830063981	0.051728482284
4	382854	515.282948749455	0.000118685474
4	382875	515.325334174563	0.042385425108
4	382920	515.3577552416	0.032421067037
4	382923	515.357995454426	0.000240212826
4	382934	515.363317387783	0.005321933357
4	382975	515.41326309552	0.049945707737
4	382978	515.414605422723	0.001342327203
4	382983	515.415804149646	0.001198726923
4	382986	515.41598667553	0.000182525884
4	382989	515.416375806025	0.000389130495
4	383002	515.420455110132	0.004079304107
4	383011	515.42504823608	0.004593125948
4	383062	515.483346678917	0.058298442837
4	383065	515.485621825269	0.002275146352
4	383072	515.48663787861	0.001016053341
4	383093	515.503967370973	0.017329492363
4	383100	515.505498446858	0.001531075885
4	383119	515.516259222812	0.010760775954
4	383128	515.5253496816	0.009090458788
4	383195	515.576091067539	0.050741385939
4	383226	515.598810683637	0.022719616098
4	383241	515.607957765211	0.009147081574
4	383252	515.63408221859	0.026124453379
4	383267	515.639656438129	0.005574219539
4	383294	515.690914762295	0.051258324166
4	383297	515.693209987922	0.002295225627
4	383308	515.705131554989	0.011921567067
4	383311	515.707080667501	0.001949112512
4	383334	515.716384955325	0.009304287824
4	383355	515.72774760064	0.011362645315
4	383358	515.728063125975	0.000315525335
4	383361	515.72863643934	0.000573313365
4	383366	515.730155139538	0.001518700198
4	383381	515.753877754047	0.023722614509
4	383476	515.897000998911	0.143123244864
4	383479	515.897065912994	6.4914083e-05
4	383482	515.897829851386	0.000763938392
4	383489	515.898931738424	0.001101887038
4	383500	515.904471949098	0.005540210674
4	383511	515.907828674347	0.003356725249
4	383546	515.934284490522	0.026455816175
4	383575	515.982983428736	0.048698938214
4	383631	516.110939466467	0.127956037731
4	383642	516.127665194807	0.01672572834
4	383649	516.129002128929	0.001336934122
4	383696	516.209503427196	0.080501298267
4	383707	516.219771108632	0.010267681436
4	383720	516.231257231216	0.011486122584
4	383725	516.233392887936	0.00213565672
4	383732	516.250421209737	0.017028321801
4	383783	516.339004233747	0.08858302401
4	383814	516.388972342045	0.049968108298
4	383889	516.479348952182	0.090376610137
4	383892	516.479700745661	0.000351793479
4	383895	516.482057425181	0.00235667952
4	383898	516.482780749895	0.000723324714
4	383905	516.485572300793	0.002791550898
4	383916	516.499310087904	0.013737787111
4	383967	516.655340892218	0.156030804314
4	383986	516.662079663659	0.006738771441
4	384001	516.677893128991	0.015813465332
4	384004	516.677960766202	6.7637211e-05
4	384019	516.684787263811	0.006826497609
4	384030	516.692609675345	0.007822411534
4	384037	516.695124730945	0.0025150556
4	384124	516.870407521211	0.175282790266
4	384135	516.895556425725	0.025148904514
4	384138	516.895838456401	0.000282030676
4	384161	516.912583348932	0.016744892531
4	384184	516.940632673985	0.028049325053
4	384195	516.950070948152	0.009438274167
4	384210	516.96459413968	0.014523191528
4	384316	517.136365344479	0.171771204799
4	384333	517.151503668482	0.015138324003
4	384392	517.247305910158	0.095802241676
4	384441	517.29550506943	0.048199159272
4	384476	517.338420952709	0.042915883279
4	384503	517.385836258484	0.047415305775
4	384528	517.407844480887	0.022008222403
4	384531	517.409901553183	0.002057072296
4	384538	517.412620439317	0.002718886134
4	384543	517.413921935735	0.001301496418
4	384578	517.473926900053	0.060004964318
4	384587	517.476600990249	0.002674090196
4	384610	517.487111920588	0.010510930339
4	384635	517.501380899973	0.014268979385
4	384668	517.544446321991	0.043065422018
4	384677	517.545934556661	0.00148823467
4	384696	517.555717183236	0.009782626575
4	384699	517.5566846172	0.000967433964
4	384714	517.580214094116	0.023529476916
4	384741	517.63231930851	0.052105214394
4	384750	517.636307488522	0.003988180012
4	384763	517.644501595783	0.008194107261
4	384778	517.672503121213	0.02800152543
4	384789	517.67740937493	0.004906253717
4	384808	517.68963551394	0.01222613901
4	384837	517.710832475404	0.021196961464
4	384846	517.741362814725	0.030530339321
4	384873	517.844885063608	0.103522248883
4	384896	517.864053726469	0.019168662861
4	384947	517.936016013435	0.071962286966
4	384954	517.940079654104	0.004063640669
4	384976	518.007161137196	0.067081483092
4	384979	518.008487058457	0.001325921261
4	384998	518.032873110486	0.024386052029
4	385021	518.065697756312	0.032824645826
4	385024	518.065712970841	1.5214529e-05
4	385075	518.147082150558	0.081369179717
4	385090	518.164318061346	0.017235910788
4	385117	518.298124120673	0.133806059327
4	385142	518.313423753559	0.015299632886
4	385145	518.313827600251	0.000403846692
4	385148	518.316475229203	0.002647628952
4	385201	518.36918735713	0.052712127927
4	385204	518.369788082614	0.000600725484
4	385207	518.370510920224	0.00072283761
4	385242	518.406499414914	0.03598849469
4	385279	518.518033612496	0.111534197582
4	385282	518.518041738879	8.126383e-06
4	385295	518.530735502628	0.012693763749
4	385382	518.671203622152	0.140468119524
4	385413	518.773172373117	0.101968750965
4	385416	518.774602430945	0.001430057828
4	385463	518.857843150608	0.083240719663
4	385486	518.878737768229	0.020894617621
4	385491	518.879824618295	0.001086850066
4	385494	518.881672434771	0.001847816476
4	385499	518.882261349016	0.000588914245
4	385506	518.887637883598	0.005376534582
4	385577	518.977260848175	0.089622964577
4	385584	518.986374511365	0.00911366319
4	385614	519.031415681601	0.045041170236
4	385621	519.035388648249	0.003972966648
4	385642	519.08698643689	0.051597788641
4	385667	519.106869430603	0.019882993713
4	385686	519.129643267144	0.022773836541
4	385693	519.132534576353	0.002891309209
4	385698	519.134191889582	0.001657313229
4	385703	519.134643373893	0.000451484311
4	385722	519.173319343075	0.038675969182
4	385749	519.231803894965	0.05848455189
4	385756	519.236263709337	0.004459814372
4	385803	519.263999046296	0.027735336959
4	385830	519.285537223416	0.02153817712
4	385839	519.292112525413	0.006575301997
4	385842	519.292395247368	0.000282721955
4	385845	519.292456958249	6.1710881e-05
4	385914	519.421212957689	0.12875599944
4	385945	519.480919640299	0.05970668261
4	385958	519.49125740497	0.010337764671
4	385963	519.492044129374	0.000786724404
4	385994	519.553563244759	0.061519115385
4	385997	519.55677652928	0.003213284521
4	386026	519.61128586638	0.0545093371
4	386047	519.671210692288	0.059924825908
4	386086	519.723933536579	0.052722844291
4	386101	519.738540451911	0.014606915332
4	386110	519.74435099685	0.005810544939
4	386129	519.751846965013	0.007495968163
4	386132	519.755579963934	0.003732998921
4	386141	519.75829996397	0.002720000036
4	386144	519.759003325495	0.000703361525
4	386151	519.761241754272	0.002238428777
4	386190	519.826054501217	0.064812746945
4	386215	519.869378119638	0.043323618421
4	386218	519.869695612437	0.000317492799
4	386221	519.871792788282	0.002097175845
4	386244	519.935334828494	0.063542040212
4	386249	519.937475110605	0.002140282111
4	386252	519.937615531923	0.000140421318
4	386267	519.960424251264	0.022808719341
4	386286	519.97736311655	0.016938865286
4	386317	520.009990175866	0.032627059316
4	386336	520.020067847986	0.01007767212
4	386351	520.033078758909	0.013010910923
4	386354	520.034063644757	0.000984885848
4	386357	520.034400566602	0.000336921845
4	386372	520.045862830977	0.011462264375
4	386439	520.143557420657	0.09769458968
4	386442	520.143712204764	0.000154784107
4	386485	520.232426846301	0.088714641537
4	386492	520.238398335045	0.005971488744
4	386503	520.253690243571	0.015291908526
4	386522	520.312316130729	0.058625887158
4	386545	520.326983875525	0.014667744796
4	386552	520.329553412723	0.002569537198
4	386579	520.373725827239	0.044172414516
4	386626	520.438391266182	0.064665438943
4	386629	520.4393569681	0.000965701918
4	386640	520.449993105443	0.010636137343
4	386659	520.494446543603	0.04445343816
4	386674	520.534310121021	0.039863577418
4	386693	520.56214578888	0.027835667859
4	386698	520.563100078537	0.000954289657
4	386715	520.601267440489	0.038167361952
4	386726	520.680485340776	0.079217900287
4	386741	520.719737222094	0.039251881318
4	386748	520.73661819822	0.016880976126
4	386763	520.779929358936	0.043311160716
4	386814	520.860072872145	0.080143513209
4	386865	520.990841999022	0.130769126877
4	386882	521.017074796597	0.026232797575
4	386891	521.023834392315	0.006759595718
4	386944	521.096908452852	0.073074060537
4	386979	521.174438406649	0.077529953797
4	387000	521.194032179388	0.019593772739
4	387003	521.194944256709	0.000912077321
4	387008	521.196702260916	0.001758004207
4	387011	521.196716068509	1.3807593e-05
4	387038	521.253227723065	0.056511654556
4	387041	521.254793271954	0.001565548889
4	387048	521.257888440912	0.003095168958
4	387103	521.423710732119	0.165822291207
4	387114	521.426080212915	0.002369480796
4	387151	521.501922937628	0.075842724713
4	387154	521.502136098603	0.000213160975
4	387157	521.502940221549	0.000804122946
4	387186	521.534652923518	0.031712701969
4	387193	521.538460188804	0.003807265286
4	387196	521.539605885806	0.001145697002
4	387255	521.576693201919	0.037087316113
4	387282	521.600968134645	0.024274932726
4	387285	521.602032385329	0.001064250684
4	387316	521.666349184511	0.064316799182
4	387339	521.699236040616	0.032886856105
4	387362	521.735625705346	0.03638966473
4	387365	521.736554480057	0.000928774711
4	387376	521.743472480448	0.006918000391
4	387383	521.747758967986	0.004286487538
4	387418	521.838983613929	0.091224645943
4	387425	521.840612055644	0.001628441715
4	387444	521.848448820409	0.007836764765
4	387447	521.848611759457	0.000162939048
4	387454	521.850607949888	0.001996190431
4	387507	521.920220736805	0.069612786917
4	387550	521.988863048159	0.068642311354
4	387563	521.9958968938	0.007033845641
4	387581	522.008557673743	0.012660779943
4	387586	522.009365904255	0.000808230512
4	387589	522.011653241799	0.002287337544
4	387592	522.012122379686	0.000469137887
4	387597	522.013316423579	0.001194043893
4	387604	522.03437802655	0.021061602971
4	387625	522.058858561047	0.024480534497
4	387646	522.088072533333	0.029213972286
4	387729	522.169309123936	0.081236590603
4	387768	522.216321274107	0.047012150171
4	387787	522.254723501927	0.03840222782
4	387814	522.284813476887	0.03008997496
4	387825	522.287236293689	0.002422816802
4	387840	522.296391199009	0.00915490532
4	387859	522.312301868453	0.015910669444
4	387874	522.333806521186	0.021504652733
4	387933	522.454772191809	0.120965670623
4	387948	522.458453735774	0.003681543965
4	387951	522.460459399678	0.002005663904
4	387958	522.462011725465	0.001552325787
4	387965	522.465737280816	0.003725555351
4	387976	522.473507850415	0.007770569599
4	387991	522.482290580826	0.008782730411
4	388002	522.491435127791	0.009144546965
4	388037	522.523533354407	0.032098226616
4	388100	522.601111920017	0.07757856561
4	388123	522.70392322425	0.102811304233
4	388130	522.735851251755	0.031928027505
4	388141	522.743346332398	0.007495080643
4	388148	522.755941402043	0.012595069645
4	388155	522.758569196954	0.002627794911
4	388162	522.761956602159	0.003387405205
4	388197	522.901743991893	0.139787389734
4	388208	522.919149445887	0.017405453994
4	388223	522.934056932715	0.014907486828
4	388232	522.938309780473	0.004252847758
4	388257	522.961503840509	0.023194060036
4	388262	522.965044910551	0.003541070042
4	388271	522.96750649409	0.002461583539
4	388286	522.979952399577	0.012445905487
4	388304	523.057301382673	0.077348983096
4	388339	523.090804498229	0.033503115556
4	388346	523.094638222198	0.003833723969
4	388351	523.095396461527	0.000758239329
4	388360	523.105429621053	0.010033159526
4	388371	523.154738260049	0.049308638996
4	388414	523.212884624095	0.058146364046
4	388417	523.213458495984	0.000573871889
4	388424	523.215809069303	0.002350573319
4	388515	523.370946163782	0.155137094479
4	388554	523.462227187978	0.091281024196
4	388561	523.467007166993	0.004779979015
4	388564	523.46844706857	0.001439901577
4	388587	523.487395168787	0.018948100217
4	388672	523.575358463329	0.087963294542
4	388729	523.626684151288	0.051325687959
4	388732	523.626759399571	7.5248283e-05
4	388763	523.672437645046	0.045678245475
4	388766	523.67376183335	0.001324188304
4	388787	523.683316937299	0.009555103949
4	388790	523.684604438	0.001287500701
4	388811	523.711188134437	0.026583696437
4	388838	523.76271053204	0.051522397603
4	388841	523.762715030144	4.498104e-06
4	388884	523.819416074525	0.056701044381
4	388887	523.819863613482	0.000447538957
4	388970	523.969335310817	0.149471697335
4	389044	524.048320770045	0.078985459228
4	389047	524.049160567072	0.000839797027
4	389058	524.064166767351	0.015006200279
4	389061	524.064976123639	0.000809356288
4	389092	524.089690197016	0.024714073377
4	389099	524.11254981661	0.022859619594
4	389150	524.158726113779	0.046176297169
4	389169	524.203107511934	0.044381398155
4	389212	524.259188975001	0.056081463067
4	389219	524.268529853279	0.009340878278
4	389226	524.269679084792	0.001149231513
4	389243	524.316334608931	0.046655524139
4	389260	524.327263860574	0.010929251643
4	389263	524.328694124445	0.001430263871
4	389266	524.328777412375	8.328793e-05
4	389299	524.354966884723	0.026189472348
4	389308	524.383776258276	0.028809373553
4	389327	524.400446578185	0.016670319909
4	389350	524.434349280905	0.03390270272
4	389375	524.506872436316	0.072523155411
4	389378	524.507275624035	0.000403187719
4	389471	524.558415991357	0.051140367322
4	389486	524.569651630005	0.011235638648
4	389493	524.572322547951	0.002670917946
4	389502	524.57411627766	0.001793729709
4	389507	524.576550279607	0.002434001947
4	389522	524.593023751507	0.0164734719
4	389537	524.623316746774	0.030292995267
4	389596	524.671277183794	0.04796043702
4	389619	524.705525662022	0.034248478228
4	389630	524.70934832607	0.003822664048
4	389637	524.711385465001	0.002037138931
4	389644	524.714262062379	0.002876597378
4	389667	524.742249242517	0.027987180138
4	389706	524.818417863683	0.076168621166
4	389805	524.881469971307	0.063052107624
4	389876	524.952202980503	0.070733009196
4	389891	524.967526448582	0.015323468079
4	389900	524.970315360436	0.002788911854
4	389909	524.973586044355	0.003270683919
4	389916	524.975189347119	0.001603302764
4	389919	524.976630470532	0.001441123413
4	389924	524.979728964728	0.003098494196
4	389929	524.981695538238	0.00196657351
4	389960	525.011866099404	0.030170561166
4	389963	525.012948882978	0.001082783574
4	389974	525.050234625856	0.037285742878
4	390021	525.106105521311	0.055870895455
4	390042	525.166296525369	0.060191004058
4	390055	525.17548139525	0.009184869881
4	390074	525.185118874174	0.009637478924
4	390093	525.202113709738	0.016994835564
4	390108	525.217777975361	0.015664265623
4	390123	525.235933815073	0.018155839712
4	390190	525.390655511486	0.154721696413
4	390201	525.408070880739	0.017415369253
4	390212	525.414571797911	0.006500917172
4	390215	525.414783409007	0.000211611096
4	390222	525.424505184096	0.009721775089
4	390241	525.44112850235	0.016623318254
4	390296	525.491821113287	0.050692610937
4	390301	525.491841951938	2.0838651e-05
4	390304	525.494591690522	0.002749738584
4	390325	525.51516894071	0.020577250188
4	390328	525.515669074233	0.000500133523
4	390343	525.535566949858	0.019897875625
4	390350	525.54515409414	0.009587144282
4	390353	525.545810801827	0.000656707687
4	390444	525.635477318052	0.089666516225
4	390471	525.648328527488	0.012851209436
4	390490	525.658269124217	0.009940596729
4	390515	525.670837632024	0.012568507807
4	390518	525.671374311502	0.000536679478
4	390521	525.671423287196	4.8975694e-05
4	390526	525.673431013258	0.002007726062
4	390551	525.678258317223	0.004827303965
4	390554	525.678261282328	2.965105e-06
4	390559	525.679884984773	0.001623702445
4	390568	525.682911786948	0.003026802175
4	390575	525.68657451697	0.003662730022
4	390578	525.690437878001	0.003863361031
4	390607	525.701958610739	0.011520732738
4	390630	525.745595752607	0.043637141868
4	390649	525.795300411739	0.049704659132
4	390692	525.883608830167	0.088308418428
4	390727	525.953500301624	0.069891471457
4	390761	526.007338624338	0.053838322714
4	390788	526.028507616016	0.021168991678
4	390795	526.030115048722	0.001607432706
4	390830	526.119065241663	0.088950192941
4	390881	526.281243322368	0.162178080705
4	390900	526.299062060848	0.01781873848
4	390907	526.32673828752	0.027676226672
4	390946	526.3582954287	0.03155714118
4	390957	526.371662834358	0.013367405658
4	390964	526.373269839869	0.001607005511
4	391039	526.546524074768	0.173254234899
4	391078	526.632872821783	0.086348747015
4	391085	526.643467815261	0.010594993478
4	391088	526.643546977718	7.9162457e-05
4	391119	526.719459049862	0.075912072144
4	391130	526.737969424934	0.018510375072
4	391137	526.742555399366	0.004585974432
4	391152	526.768754699474	0.026199300108
4	391191	526.802759530376	0.034004830902
4	391206	526.811843029784	0.009083499408
4	391215	526.814606326488	0.002763296704
4	391224	526.817762752815	0.003156426327
4	391237	526.83120461106	0.013441858245
4	391250	526.843468732225	0.012264121165
4	391257	526.846050847776	0.002582115551
4	391268	526.862769086645	0.016718238869
4	391323	526.997922086379	0.135152999734
4	391341	527.0079658064	0.010043720021
4	391356	527.03028921551	0.02232340911
4	391367	527.043190637791	0.012901422281
4	391378	527.059174117543	0.015983479752
4	391401	527.212297150437	0.153123032894
4	391418	527.224281905296	0.011984754859
4	391427	527.227231723329	0.002949818033
4	391442	527.239287538333	0.012055815004
4	391449	527.243393569243	0.00410603091
4	391452	527.243742896127	0.000349326884
4	391509	527.288331638982	0.044588742855
4	391542	527.314684203188	0.026352564206
4	391583	527.393256772384	0.078572569196
4	391588	527.394217734038	0.000960961654
4	391627	527.433811614963	0.039593880925
4	391636	527.487093121323	0.05328150636
4	391653	527.4960117515	0.008918630177
4	391676	527.517616530377	0.021604778877
4	391727	527.612746858155	0.095130327778
4	391746	527.650296198122	0.037549339967
4	391753	527.653887441248	0.003591243126
4	391792	527.716583432854	0.062695991606
4	391797	527.718445663516	0.001862230662
4	391808	527.721926139039	0.003480475523
4	391853	527.912811512075	0.190885373036
4	391856	527.915379235708	0.002567723633
4	391883	527.950756151029	0.035376915321
4	391886	527.950829893572	7.3742543e-05
4	391893	527.956678019349	0.005848125777
4	391912	527.97588512509	0.019207105741
4	391926	528.004066019255	0.028180894165
4	391967	528.04270445089	0.038638431635
4	392004	528.093060535368	0.050356084478
4	392019	528.114973453106	0.021912917738
4	392034	528.125922179192	0.010948726086
4	392037	528.126026854285	0.000104675093
4	392044	528.134312210124	0.008285355839
4	392055	528.145652978034	0.01134076791
4	392064	528.156177890938	0.010524912904
4	392081	528.164848682903	0.008670791965
4	392120	528.20317141299	0.038322730087
4	392127	528.205618923887	0.002447510897
4	392136	528.207408258707	0.00178933482
4	392139	528.208896148936	0.001487890229
4	392146	528.212280384691	0.003384235755
4	392163	528.215694309252	0.003413924561
4	392190	528.237886422502	0.02219211325
4	392193	528.238629713734	0.000743291232
4	392196	528.241640026198	0.003010312464
4	392203	528.244949137188	0.00330911099
4	392226	528.266317625634	0.021368488446
4	392229	528.266450875601	0.000133249967
4	392236	528.276506923976	0.010056048375
4	392239	528.277844854413	0.001337930437
4	392246	528.295542450773	0.01769759636
4	392257	528.346043064906	0.050500614133
4	392308	528.47513199316	0.129088928254
4	392317	528.479979353968	0.004847360808
4	392338	528.548910081513	0.068930727545
4	392373	528.597172340464	0.048262258951
4	392384	528.648009238598	0.050836898134
4	392389	528.651066479639	0.003057241041
4	392474	528.759639870435	0.108573390796
4	392509	528.928158009264	0.168518138829
4	392536	528.948277875009	0.020119865745
4	392553	528.962040101031	0.013762226022
4	392560	528.964188739515	0.002148638484
4	392573	528.968581015309	0.004392275794
4	392580	528.971254040871	0.002673025562
4	392602	529.019143988134	0.047889947263
4	392609	529.022211614295	0.003067626161
4	392634	529.03351093107	0.011299316775
4	392637	529.03760088614	0.00408995507
4	392702	529.083836164	0.04623527786
4	392721	529.093586058163	0.009749894163
4	392740	529.125287291972	0.031701233809
4	392809	529.203670713259	0.078383421287
4	392838	529.26343554703	0.059764833771
4	392861	529.311756681846	0.048321134816
4	392868	529.315657753238	0.003901071392
4	392947	529.399591733723	0.083933980485
4	392982	529.428168969672	0.028577235949
4	392995	529.4305112011	0.002342231428
4	392998	529.43185990652	0.00134870542
4	393011	529.435755847942	0.003895941422
4	393014	529.436169625649	0.000413777707
4	393053	529.521942001529	0.08577237588
4	393076	529.528321670357	0.006379668828
4	393135	529.569452816864	0.041131146507
4	393162	529.60562824652	0.036175429656
4	393169	529.611832227095	0.006203980575
4	393192	529.620773080603	0.008940853508
4	393223	529.651478551233	0.03070547063
4	393230	529.659240165906	0.007761614673
4	393247	529.671512807592	0.012272641686
4	393250	529.6722687559	0.000755948308
4	393253	529.672333196206	6.4440306e-05
4	393294	529.755494974985	0.083161778779
4	393337	529.861194851929	0.105699876944
4	393360	529.907808947587	0.046614095658
4	393387	529.932137660406	0.024328712819
4	393406	529.937558236482	0.005420576076
4	393449	530.017317815722	0.07975957924
4	393452	530.018237004134	0.000919188412
4	393455	530.018280109797	4.3105663e-05
4	393458	530.019695229912	0.001415120115
4	393465	530.086874896339	0.067179666427
4	393468	530.08740341348	0.000528517141
4	393471	530.087956915032	0.000553501552
4	393486	530.112058709558	0.024101794526
4	393517	530.137322488675	0.025263779117
4	393532	530.144226480599	0.006903991924
4	393567	530.205231920691	0.061005440092
4	393570	530.205455072308	0.000223151617
4	393597	530.323206507118	0.11775143481
4	393612	530.337953981868	0.01474747475
4	393635	530.431326223469	0.093372241601
4	393648	530.436214367596	0.004888144127
4	393661	530.44264933454	0.006434966944
4	393722	530.499890654381	0.057241319841
4	393735	530.506623042419	0.006732388038
4	393738	530.509496236803	0.002873194384
4	393745	530.512571464633	0.00307522783
4	393756	530.549431416519	0.036859951886
4	393835	530.722055434487	0.172624017968
4	393838	530.723517411298	0.001461976811
4	393893	530.843662243449	0.120144832151
4	393910	530.859414638939	0.01575239549
4	393939	530.875475663963	0.016061025024
4	393970	530.943821903475	0.068346239512
4	393993	530.965923556662	0.022101653187
4	393996	530.965998628744	7.5072082e-05
4	394007	530.972525199343	0.006526570599
4	394044	531.049745657651	0.077220458308
4	394055	531.074397365369	0.024651707718
4	394086	531.112760803499	0.03836343813
4	394089	531.113114176633	0.000353373134
4	394096	531.121633565456	0.008519388823
4	394107	531.127289032837	0.005655467381
4	394138	531.159237479282	0.031948446445
4	394201	531.270136256864	0.110898777582
4	394204	531.270283858035	0.000147601171
4	394227	531.298360345554	0.028076487519
4	394242	531.314151670535	0.015791324981
4	394249	531.320940786612	0.006789116077
4	394260	531.344150952255	0.023210165643
4	394331	531.485934229847	0.141783277592
4	394346	531.500789266014	0.014855036167
4	394371	531.530068771197	0.029279505183
4	394374	531.532745023676	0.002676252479
4	394435	531.632546601225	0.099801577549
4	394452	531.657985519673	0.025438918448
4	394501	531.705443844144	0.047458324471
4	394534	531.753423489596	0.047979645452
4	394539	531.753626339209	0.000202849613
4	394544	531.754866328981	0.001239989772
4	394549	531.755844863579	0.000978534598
4	394564	531.765815029539	0.00997016596
4	394667	531.942863855002	0.177048825463
4	394674	531.943718109788	0.000854254786
4	394699	531.957027682	0.013309572212
4	394702	531.958824256357	0.001796574357
4	394736	532.002577914981	0.043753658624
4	394757	532.01878356148	0.016205646499
4	394764	532.02298088418	0.0041973227
4	394811	532.111946543219	0.088965659039
4	394820	532.113623279251	0.001676736032
4	394825	532.114105018573	0.000481739322
4	394836	532.125785909725	0.011680891152
4	394903	532.253910061118	0.128124151393
4	394946	532.330995777167	0.077085716049
4	394963	532.340237530386	0.009241753219
4	394982	532.349259205481	0.009021675095
4	395007	532.376822400618	0.027563195137
4	395050	532.409952613939	0.033130213321
4	395067	532.471669536729	0.06171692279
4	395076	532.480159702213	0.008490165484
4	395083	532.499465575705	0.019305873492
4	395086	532.500636379097	0.001170803392
4	395097	532.507048506581	0.006412127484
4	395148	532.543650076074	0.036601569493
4	395179	532.637057268662	0.093407192588
4	395182	532.637344951939	0.000287683277
4	395241	532.689217642257	0.051872690318
4	395272	532.729160078723	0.039942436466
4	395335	532.781583967528	0.052423888805
4	395338	532.781932243009	0.000348275481
4	395353	532.803827322689	0.02189507968
4	395390	532.862153251205	0.058325928516
4	395397	532.862676863456	0.000523612251
4	395426	532.884406068876	0.02172920542
4	395437	532.8978297376	0.013423668724
4	395460	532.962809541115	0.064979803515
4	395463	532.962845872348	3.6331233e-05
4	395489	533.060708132755	0.097862260407
4	395556	533.163605205524	0.102897072769
4	395563	533.166477565426	0.002872359902
4	395594	533.216752971259	0.050275405833
4	395617	533.25712058233	0.040367611071
4	395624	533.264280318954	0.007159736624
4	395631	533.277551022762	0.013270703808
4	395638	533.283127607713	0.005576584951
4	395653	533.294929448887	0.011801841174
4	395664	533.314177442675	0.019247993788
4	395695	533.351793978305	0.03761653563
4	395756	533.44096517024	0.089171191935
4	395781	533.46386580682	0.02290063658
4	395824	533.548136706005	0.084270899185
4	395855	533.593521438339	0.045384732334
4	395882	533.666260531203	0.072739092864
4	395897	533.675499386323	0.00923885512
4	395916	533.685864123567	0.010364737244
4	395943	533.697840957087	0.01197683352
4	395978	533.760395992931	0.062555035844
4	395981	533.761173320427	0.000777327496
4	395992	533.763723641794	0.002550321367
4	395999	533.767873283335	0.004149641541
4	396034	533.797602515215	0.02972923188
4	396037	533.797956624043	0.000354108828
4	396046	533.800578623892	0.002621999849
4	396049	533.800759057665	0.000180433773
4	396056	533.802117780576	0.001358722911
4	396077	533.815341517517	0.013223736941
4	396112	533.850733262759	0.035391745242
4	396125	533.854007342453	0.003274079694
4	396158	533.880520640316	0.026513297863
4	396161	533.880578248405	5.7608089e-05
4	396172	533.902173980597	0.021595732192
4	396211	533.961769232982	0.059595252385
4	396247	534.045769770982	0.084000538
4	396250	534.046117004661	0.000347233679
4	396287	534.13136008242	0.085243077759
4	396354	534.217755610617	0.086395528197
4	396381	534.236123642309	0.018368031692
4	396392	534.259303020221	0.023179377912
4	396403	534.272660067533	0.013357047312
4	396434	534.307910080715	0.035250013182
4	396441	534.326596218124	0.018686137409
4	396456	534.386581043303	0.059984825179
4	396499	534.492949031121	0.106367987818
4	396530	534.518427577169	0.025478546048
4	396537	534.531770064496	0.013342487327
4	396586	534.563399322646	0.03162925815
4	396591	534.56506164239	0.001662319744
4	396606	534.571647854679	0.006586212289
4	396617	534.576001483632	0.004353628953
4	396632	534.581881818465	0.005880334833
4	396639	534.584137739043	0.002255920578
4	396648	534.586445486685	0.002307747642
4	396653	534.586716245656	0.000270758971
4	396686	534.60567563325	0.018959387594
4	396689	534.60699126469	0.00131563144
4	396702	534.608295311918	0.001304047228
4	396709	534.613287270915	0.004991958997
4	396722	534.620439253177	0.007151982262
4	396727	534.621823727366	0.001384474189
4	396758	534.630336170467	0.008512443101
4	396763	534.631224039661	0.000887869194
4	396768	534.632016831706	0.000792792045
4	396851	534.70439160692	0.072374775214
4	396886	534.727297671887	0.022906064967
4	396899	534.731547135076	0.004249463189
4	396932	534.765939664045	0.034392528969
4	396937	534.769406893735	0.00346722969
4	396942	534.772497418456	0.003090524721
4	396969	534.796193307223	0.023695888767
4	396980	534.805791326064	0.009598018841
4	397031	534.923731518831	0.117940192767
4	397046	534.956473781294	0.032742262463
4	397085	535.028194740695	0.071720959401
4	397088	535.029808279813	0.001613539118
4	397107	535.095155733394	0.065347453581
4	397110	535.096611188497	0.001455455103
4	397125	535.106210612157	0.00959942366
4	397132	535.112456791628	0.006246179471
4	397135	535.113234095657	0.000777304029
4	397158	535.148023190379	0.034789094722
4	397201	535.190647723226	0.042624532847
4	397220	535.245168910729	0.054521187503
4	397227	535.249583982913	0.004415072184
4	397238	535.253232407856	0.003648424943
4	397265	535.289917365096	0.03668495724
4	397296	535.301694245232	0.011776880136
4	397299	535.302286093527	0.000591848295
4	397302	535.302639827341	0.000353733814
4	397317	535.312748712313	0.010108884972
4	397356	535.347986393847	0.035237681534
4	397389	535.365089006339	0.017102612492
4	397394	535.367292761809	0.00220375547
4	397429	535.392061133659	0.02476837185
4	397436	535.405034628578	0.012973494919
4	397479	535.504301644953	0.099267016375
4	397494	535.51161760901	0.007315964057
4	397529	535.535281993435	0.023664384425
4	397552	535.548423239884	0.013141246449
4	397557	535.551940312881	0.003517072997
4	397566	535.554051068514	0.002110755633
4	397573	535.559479455697	0.005428387183
4	397624	535.601540540618	0.042061084921
4	397647	535.63460857164	0.033068031022
4	397690	535.692545794009	0.057937222369
4	397693	535.692590240538	4.4446529e-05
4	397740	535.761309758563	0.068719518025
4	397755	535.809401142549	0.048091383986
4	397766	535.815121345456	0.005720202907
4	397783	535.828158621822	0.013037276366
4	397800	535.840068524956	0.011909903134
4	397811	535.869782853932	0.029714328976
4	397818	535.873890149156	0.004107295224
4	397896	536.01223961902	0.138349469864
4	397903	536.018000994732	0.005761375712
4	397926	536.064989349768	0.046988355036
4	397993	536.155970798656	0.090981448888
4	397996	536.158546688008	0.002575889352
4	398003	536.160599129342	0.002052441334
4	398010	536.165579622522	0.00498049318
4	398017	536.178525565973	0.012945943451
4	398030	536.189285845287	0.010760279314
4	398067	536.213897138236	0.024611292949
4	398072	536.214713039285	0.000815901049
4	398075	536.215833225956	0.001120186671
4	398106	536.258865847557	0.043032621601
4	398139	536.273274712716	0.014408865159
4	398142	536.273970733338	0.000696020622
4	398157	536.278792445497	0.004821712159
4	398172	536.284996965874	0.006204520377
4	398183	536.289826859685	0.004829893811
4	398198	536.316629582644	0.026802722959
4	398205	536.335550568236	0.018920985592
4	398212	536.338029726443	0.002479158207
4	398239	536.362368995603	0.02433926916
4	398260	536.377099733967	0.014730738364
4	398329	536.435381700781	0.058281966814
4	398396	536.525798908029	0.090417207248
4	398399	536.525809356144	1.0448115e-05
4	398402	536.526309296267	0.000499940123
4	398417	536.570373314859	0.044064018592
4	398428	536.581006825961	0.010633511102
4	398495	536.65227415944	0.071267333479
4	398524	536.695997908236	0.043723748796
4	398537	536.698895221696	0.00289731346
4	398552	536.706745823598	0.007850601902
4	398563	536.728090841452	0.021345017854
4	398590	536.768012314329	0.039921472877
4	398597	536.770850872068	0.002838557739
4	398602	536.771438350375	0.000587478307
4	398611	536.776437168601	0.004998818226
4	398694	536.849141834963	0.072704666362
4	398703	536.856432453926	0.007290618963
4	398720	536.87555304562	0.019120591694
4	398731	536.88837502523	0.01282197961
4	398786	536.985851948237	0.097476923007
4	398789	536.986040405068	0.000188456831
4	398804	536.991468425327	0.005428020259
4	398830	537.053388343055	0.061919917728
4	398849	537.086357706573	0.032969363518
4	398856	537.089335503664	0.002977797091
4	398863	537.09346808801	0.004132584346
4	398866	537.094026958293	0.000558870283
4	398869	537.094149710576	0.000122752283
4	398896	537.125962549072	0.031812838496
4	398927	537.166373763602	0.04041121453
4	398938	537.188925905497	0.022552141895
4	398977	537.270940255437	0.08201434994
4	398988	537.284062799761	0.013122544324
4	399011	537.305562286507	0.021499486746
4	399014	537.305855768728	0.000293482221
4	399017	537.307012440611	0.001156671883
4	399032	537.318707158934	0.011694718323
4	399047	537.325438647503	0.006731488569
4	399050	537.325479866848	4.1219345e-05
4	399053	537.326063193475	0.000583326627
4	399078	537.346163477616	0.020100284141
4	399087	537.350272060458	0.004108582842
4	399094	537.356030531368	0.00575847091
4	399133	537.466623844112	0.110593312744
4	399154	537.48574395913	0.019120115018
4	399159	537.487618820734	0.001874861604
4	399166	537.489834226205	0.002215405471
4	399191	537.510986446244	0.021152220039
4	399194	537.511303389639	0.000316943395
4	399221	537.54562651358	0.034323123941
4	399354	537.748856887642	0.203230374062
4	399371	537.757583808079	0.008726920437
4	399384	537.764953485508	0.007369677429
4	399455	537.866790514955	0.101837029447
4	399462	537.870013145804	0.003222630849
4	399475	537.874737311789	0.004724165985
4	399492	537.885225963839	0.01048865205
4	399495	537.885914599335	0.000688635496
4	399514	537.904239196386	0.018324597051
4	399517	537.90576491587	0.001525719484
4	399524	537.920049023648	0.014284107778
4	399531	537.926992146004	0.006943122356
4	399538	537.929078531004	0.002086385
4	399561	537.976196484819	0.047117953815
4	399579	538.000727837455	0.024531352636
4	399590	538.021861353671	0.021133516216
4	399609	538.040693387122	0.018832033451
4	399636	538.058714944214	0.018021557092
4	399719	538.369326105834	0.31061116162
4	399722	538.36973550981	0.000409403976
4	399761	538.450421363045	0.080685853235
4	399772	538.462058425164	0.011637062119
4	399871	538.588056785687	0.125998360523
4	399874	538.588119086335	6.2300648e-05
4	399893	538.658497767528	0.070378681193
4	399896	538.658675320746	0.000177553218
4	399899	538.659351082446	0.0006757617
4	399902	538.660557958598	0.001206876152
4	399961	538.749902506255	0.089344547657
4	399968	538.760811137873	0.010908631618
4	399979	538.824217928903	0.06340679103
4	399990	538.832440969405	0.008223040502
4	399997	538.834217036107	0.001776066702
4	400000	538.834882239582	0.000665203475
4	400023	538.849132295418	0.014250055836
4	400054	538.875426482076	0.026294186658
4	400105	538.982433610783	0.107007128707
4	400108	538.982490523913	5.691313e-05
4	400111	538.982897119146	0.000406595233
4	400130	538.998201282571	0.015304163425
4	400133	538.998344580642	0.000143298071
4	400136	538.998538566244	0.000193985602
4	400150	539.014665353999	0.016126787755
4	400175	539.034142654205	0.019477300206
4	400180	539.036084245202	0.001941590997
4	400213	539.055948775234	0.019864530032
4	400278	539.114118396227	0.058169620993
4	400289	539.122225340445	0.008106944218
4	400308	539.156805587068	0.034580246623
4	400335	539.217071920889	0.060266333821
4	400358	539.23845463703	0.021382716141
4	400363	539.241136449743	0.002681812713
4	400366	539.242799886766	0.001663437023
4	400395	539.307426416686	0.06462652992
4	400442	539.418003920744	0.110577504058
4	400449	539.420722694594	0.00271877385
4	400464	539.446315931087	0.025593236493
4	400467	539.447102624075	0.000786692988
4	400474	539.463744154891	0.016641530816
4	400485	539.479125294925	0.015381140034
4	400500	539.493870575929	0.014745281004
4	400503	539.494691806609	0.00082123068
4	400516	539.501477041266	0.006785234657
4	400521	539.506459332938	0.004982291672
4	400534	539.514503309426	0.008043976488
4	400571	539.556337570763	0.041834261337
4	400578	539.559977823973	0.00364025321
4	400599	539.591660241898	0.031682417925
4	400632	539.650002345757	0.058342103859
4	400647	539.663625334659	0.013622988902
4	400674	539.721481498345	0.057856163686
4	400677	539.722681547773	0.001200049428
4	400698	539.759037578948	0.036356031175
4	400723	539.80047317118	0.041435592232
4	400734	539.807183081394	0.006709910214
4	400741	539.810783703246	0.003600621852
4	400766	539.875920189295	0.065136486049
4	400807	539.942766427952	0.066846238657
4	400814	539.943770797588	0.001004369636
4	400825	539.94645509684	0.002684299252
4	400828	539.946740938115	0.000285841275
4	400839	539.975612193939	0.028871255824
4	400844	539.979968609608	0.004356415669
4	400869	540.003297683799	0.023329074191
4	400876	540.011901637234	0.008603953435
4	400919	540.130341877767	0.118440240533
4	400938	540.159961315685	0.029619437918
4	400953	540.181972859914	0.022011544229
4	400968	540.252372884117	0.070400024203
4	400971	540.254732889462	0.002360005345
4	401042	540.358795284715	0.104062395253
4	401061	540.383688457775	0.02489317306
4	401116	540.48272651556	0.099038057785
4	401119	540.485979068461	0.003252552901
4	401122	540.486276225213	0.000297156752
4	401133	540.497585781176	0.011309555963
4	401154	540.528177038807	0.030591257631
4	401171	540.538312587832	0.010135549025
4	401180	540.543122378386	0.004809790554
4	401183	540.543309152615	0.000186774229
4	401212	540.554689915687	0.011380763072
4	401219	540.559532528366	0.004842612679
4	401242	540.571436192264	0.011903663898
4	401269	540.623576699872	0.052140507608
4	401312	540.679183946055	0.055607246183
4	401335	540.709391171866	0.030207225811
4	401338	540.709506845006	0.00011567314
4	401341	540.710073781207	0.000566936201
4	401346	540.714082947296	0.004009166089
4	401351	540.714164840091	8.1892795e-05
4	401374	540.736675138877	0.022510298786
4	401409	540.835916012434	0.099240873557
4	401416	540.838037682697	0.002121670263
4	401419	540.839284283415	0.001246600718
4	401422	540.84016480918	0.000880525765
4	401425	540.840602167659	0.000437358479
4	401428	540.842388312871	0.001786145212
4	401443	540.846709035839	0.004320722968
4	401448	540.847011194806	0.000302158967
4	401473	540.858705250732	0.011694055926
4	401486	540.867302241112	0.00859699038
4	401499	540.871650945337	0.004348704225
4	401506	540.872371880186	0.000720934849
4	401513	540.873908736922	0.001536856736
4	401520	540.87867566974	0.004766932818
4	401547	540.914026125589	0.035350455849
4	401570	540.939608210926	0.025582085337
4	401583	540.957107044144	0.017498833218
4	401610	540.967147976026	0.010040931882
4	401625	540.971818112537	0.004670136511
4	401628	540.971929463615	0.000111351078
4	401633	540.97268297638	0.000753512765
4	401640	540.97584314455	0.00316016817
4	401647	540.985971095659	0.010127951109
4	401654	540.990262576409	0.00429148075
4	401657	540.990790924643	0.000528348234
4	401706	541.043546493888	0.052755569245
4	401719	541.058923556147	0.015377062259
4	401724	541.065440616782	0.006517060635
4	401731	541.068439496643	0.002998879861
4	401742	541.078513714119	0.010074217476
4	401753	541.088812225017	0.010298510898
4	401776	541.1016622838	0.012850058783
4	401795	541.134685090142	0.033022806342
4	401812	541.142141018429	0.007455928287
4	401829	541.162887590215	0.020746571786
4	401840	541.181248288119	0.018360697904
4	401871	541.213623618486	0.032375330367
4	401886	541.217591895413	0.003968276927
4	401893	541.224153058003	0.00656116259
4	401922	541.246980842964	0.022827784961
4	401925	541.24750446322	0.000523620256
4	401950	541.26397433363	0.01646987041
4	401965	541.286410627372	0.022436293742
4	401968	541.28922428207	0.002813654698
4	401987	541.326523535315	0.037299253245
4	402008	541.340282828682	0.013759293367
4	402013	541.345838671093	0.005555842411
4	402022	541.352236789495	0.006398118402
4	402029	541.354128984783	0.001892195288
4	402044	541.363194385631	0.009065400848
4	402057	541.381607693469	0.018413307838
4	402068	541.423622535068	0.042014841599
4	402083	541.430821761135	0.007199226067
4	402090	541.431528638219	0.000706877084
4	402177	541.702732780134	0.271204141915
4	402184	541.706386537627	0.003653757493
4	402187	541.706553521236	0.000166983609
4	402210	541.739117764604	0.032564243368
4	402217	541.782261719185	0.043143954581
4	402228	541.789044501793	0.006782782608
4	402283	541.850442124491	0.061397622698
4	402310	541.913550648087	0.063108523596
4	402321	541.992223493673	0.078672845586
4	402324	541.992526158848	0.000302665175
4	402346	542.002040279381	0.009514120533
4	402361	542.018463170092	0.016422890711
4	402364	542.018619356937	0.000156186845
4	402391	542.030277939451	0.011658582514
4	402426	542.056955742122	0.026677802671
4	402441	542.069530502509	0.012574760387
4	402444	542.069689673448	0.000159170939
4	402493	542.137702906967	0.068013233519
4	402546	542.187360254711	0.049657347744
4	402681	542.386444379658	0.199084124947
4	402696	542.393967329951	0.007522950293
4	402739	542.465884105118	0.071916775167
4	402742	542.466251555257	0.000367450139
4	402745	542.466341567134	9.0011877e-05
4	402756	542.500428697967	0.034087130833
4	402759	542.501053137985	0.000624440018
4	402800	542.532718642363	0.031665504378
4	402817	542.536926902712	0.004208260349
4	402838	542.550474205389	0.013547302677
4	402859	542.566126002907	0.015651797518
4	402926	542.732503721668	0.166377718761
4	402951	542.753150150456	0.020646428788
4	402964	542.760835980593	0.007685830137
4	402967	542.760975023746	0.000139043153
4	402974	542.765403603805	0.004428580059
4	402977	542.765608569665	0.00020496586
4	402980	542.766476589715	0.00086802005
4	402995	542.781768414231	0.015291824516
4	403018	542.830757083123	0.048988668892
4	403021	542.830856970925	9.9887802e-05
4	403076	542.966135086541	0.135278115616
4	403095	542.994054728662	0.027919642121
4	403145	543.063852219138	0.069797490476
4	403156	543.078596431851	0.014744212713
4	403207	543.16723369654	0.088637264689
4	403226	543.187120695045	0.019886998505
4	403235	543.190734542917	0.003613847872
4	403238	543.191259544067	0.00052500115
4	403241	543.191468196713	0.000208652646
4	403246	543.196136876578	0.004668679865
4	403257	543.217423935419	0.021287058841
4	403292	543.262653163496	0.045229228077
4	403295	543.263571270076	0.00091810658
4	403300	543.265830258176	0.0022589881
4	403317	543.279769539932	0.013939281756
4	403332	543.312746252925	0.032976712993
4	403363	543.371664781832	0.058918528907
4	403366	543.372343185437	0.000678403605
4	403377	543.378636259694	0.006293074257
4	403404	543.407827128109	0.029190868415
4	403411	543.411948305672	0.004121177563
4	403422	543.431196865767	0.019248560095
4	403437	543.471806828986	0.040609963219
4	403440	543.47197838657	0.000171557584
4	403473	543.567042970612	0.095064584042
4	403506	543.595917942746	0.028874972134
4	403517	543.640018446386	0.04410050364
4	403534	543.653199821554	0.013181375168
4	403543	543.659471414171	0.006271592617
4	403586	543.741436956296	0.081965542125
4	403601	543.772728750482	0.031291794186
4	403620	543.81394345499	0.041214704508
4	403639	543.840202720652	0.026259265662
4	403642	543.840221778422	1.905777e-05
4	403645	543.840609887854	0.000388109432
4	403676	543.856937837347	0.016327949493
4	403679	543.858722375954	0.001784538607
4	403682	543.859227691109	0.000505315155
4	403685	543.860095063551	0.000867372442
4	403700	543.866652794503	0.006557730952
4	403723	543.882202565556	0.015549771053
4	403730	543.889263516303	0.007060950747
4	403737	543.891161003918	0.001897487615
4	403744	543.899818464937	0.008657461019
4	403751	543.910170586596	0.010352121659
4	403770	543.916328463564	0.006157876968
4	403817	543.9614502811	0.045121817536
4	403875	544.09614879815	0.13469851705
4	403886	544.131988364161	0.035839566011
4	403941	544.230247783795	0.098259419634
4	403944	544.230414738591	0.000166954796
4	403957	544.241828533919	0.011413795328
4	403968	544.244486055746	0.002657521827
4	403973	544.245272894717	0.000786838971
4	404004	544.314443665414	0.069170770697
4	404007	544.31700198722	0.002558321806
4	404014	544.318594879878	0.001592892658
4	404041	544.383336989695	0.064742109817
4	404058	544.396300426576	0.012963436881
4	404061	544.396369196204	6.8769628e-05
4	404094	544.465684629609	0.069315433405
4	404101	544.495330317586	0.029645687977
4	404104	544.496431065941	0.001100748355
4	404111	544.503743184565	0.007312118624
4	404114	544.504504835203	0.000761650638
4	404121	544.508895718875	0.004390883672
4	404234	544.691571826619	0.182676107744
4	404241	544.694120646329	0.00254881971
4	404270	544.76058946575	0.066468819421
4	404285	544.771145405553	0.010555939803
4	404292	544.781468856894	0.010323451341
4	404303	544.803122677479	0.021653820585
4	404330	544.836643136184	0.033520458705
4	404361	544.905371839586	0.068728703402
4	404400	544.998246188689	0.092874349103
4	404435	545.019344665367	0.021098476678
4	404438	545.019533437275	0.000188771908
4	404441	545.021326075337	0.001792638062
4	404444	545.022582360624	0.001256285287
4	404447	545.022882366764	0.00030000614
4	404458	545.034079106083	0.011196739319
4	404491	545.172562108626	0.138483002543
4	404556	545.292728309466	0.12016620084
4	404587	545.341668080565	0.048939771099
4	404590	545.342216492094	0.000548411529
4	404595	545.343112990534	0.00089649844
4	404608	545.382217362922	0.039104372388
4	404639	545.440005516735	0.057788153813
4	404648	545.444710040011	0.004704523276
4	404657	545.449669905006	0.004959864995
4	404664	545.461653805883	0.011983900877
4	404703	545.493514634404	0.031860828521
4	404714	545.506263128201	0.012748493797
4	404717	545.507231799043	0.000968670842
4	404720	545.508075012678	0.000843213635
4	404743	545.522009369885	0.013934357207
4	404770	545.556408636721	0.034399266836
4	404773	545.558619751352	0.002211114631
4	404776	545.559180106152	0.0005603548
4	404799	545.641896955058	0.082716848906
4	404806	545.653867537575	0.011970582517
4	404817	545.659315343262	0.005447805687
4	404820	545.65940784219	9.2498928e-05
4	404851	545.722931719448	0.063523877258
4	404862	545.739345535231	0.016413815783
4	404897	545.805940002879	0.066594467648
4	404948	545.978929909262	0.172989906383
4	404951	545.979147045569	0.000217136307
4	404985	546.028767171892	0.049620126323
4	405020	546.094955140914	0.066187969022
4	405027	546.099781179707	0.004826038793
4	405082	546.196298956337	0.09651777663
4	405145	546.324982350107	0.12868339377
4	405196	546.36936944436	0.044387094253
4	405199	546.369602516319	0.000233071959
4	405226	546.41696127261	0.047358756291
4	405241	546.441265964458	0.024304691848
4	405254	546.454886323581	0.013620359123
4	405257	546.455688245187	0.000801921606
4	405260	546.456170380285	0.000482135098
4	405273	546.458982512455	0.00281213217
4	405328	546.543707088426	0.084724575971
4	405335	546.547853579808	0.004146491382
4	405350	546.569596030882	0.021742451074
4	405353	546.571427864185	0.001831833303
4	405360	546.572105409391	0.000677545206
4	405397	546.622221283817	0.050115874426
4	405402	546.623626485235	0.001405201418
4	405445	546.672056984418	0.048430499183
4	405448	546.673413109999	0.001356125581
4	405465	546.6821951095	0.008781999501
4	405500	546.718457599938	0.036262490438
4	405529	546.73782468397	0.019367084032
4	405536	546.740529340948	0.002704656978
4	405575	546.791074250082	0.050544909134
4	405638	546.83041200646	0.039337756378
4	405643	546.831194834677	0.000782828217
4	405650	546.832761548737	0.00156671406
4	405691	546.866973068	0.034211519263
4	405698	546.872625727089	0.005652659089
4	405709	546.889250365469	0.01662463838
4	405712	546.890543987112	0.001293621643
4	405723	546.894980647508	0.004436660396
4	405726	546.895124292334	0.000143644826
4	405733	546.902456325981	0.007332033647
4	405740	546.903786446709	0.001330120728
4	405862	547.130019175006	0.226232728297
4	405909	547.276668111911	0.146648936905
4	405928	547.285369273607	0.008701161696
4	405947	547.297265803116	0.011896529509
4	405950	547.297272439203	6.636087e-06
4	405977	547.32260404781	0.025331608607
4	405984	547.327373508763	0.004769460953
4	405995	547.333975015824	0.006601507061
4	406006	547.337922987885	0.003947972061
4	406013	547.338973110211	0.001050122326
4	406028	547.343366216404	0.004393106193
4	406051	547.382776490616	0.039410274212
4	406074	547.418012940668	0.035236450052
4	406089	547.430176967931	0.012164027263
4	406100	547.439313540324	0.009136572393
4	406127	547.503229332787	0.063915792463
4	406138	547.505653703358	0.002424370571
4	406147	547.508514182332	0.002860478974
4	406176	547.530584927036	0.022070744704
4	406179	547.530636742356	5.181532e-05
4	406202	547.583700820112	0.053064077756
4	406205	547.584986191973	0.001285371861
4	406240	547.630796417956	0.045810225983
4	406243	547.633100048559	0.002303630603
4	406278	547.688258359695	0.055158311136
4	406313	547.727270527872	0.039012168177
4	406328	547.737117893362	0.00984736549
4	406343	547.74926692028	0.012149026918
4	406362	547.803582004715	0.054315084435
4	406383	547.811859396561	0.008277391846
4	406436	547.900299490094	0.088440093533
4	406443	547.904205936742	0.003906446648
4	406462	547.959946957159	0.055741020417
4	406516	548.044303654198	0.084356697039
4	406527	548.048702185518	0.00439853132
4	406540	548.061693643084	0.012991457566
4	406557	548.073886412843	0.012192769759
4	406582	548.100132419847	0.026246007004
4	406585	548.103401307793	0.003268887946
4	406658	548.314615716404	0.211214408611
4	406673	548.333481949157	0.018866232753
4	406676	548.334436267448	0.000954318291
4	406687	548.342913671047	0.008477403599
4	406702	548.357484186152	0.014570515105
4	406765	548.451994380394	0.094510194242
4	406768	548.452413351983	0.000418971589
4	406807	548.533940780816	0.081527428833
4	406842	548.626187352965	0.092246572149
4	406861	548.661251603263	0.035064250298
4	406876	548.693531768314	0.032280165051
4	406887	548.70382078867	0.010289020356
4	406890	548.703834427074	1.3638404e-05
4	406929	548.773744502543	0.069910075469
4	406980	548.932770842268	0.159026339725
4	407005	548.960553955667	0.027783113399
4	407018	548.969878417725	0.009324462058
4	407023	548.971118501108	0.001240083383
4	407028	548.972091296564	0.000972795456
4	407054	549.023808779173	0.051717482609
4	407061	549.025055124058	0.001246344885
4	407072	549.03059489653	0.005539772472
4	407083	549.036095696007	0.005500799477
4	407102	549.041998291815	0.005902595808
4	407111	549.051951724879	0.009953433064
4	407114	549.052133755774	0.000182030895
4	407123	549.054488462003	0.002354706229
4	407146	549.087024420806	0.032535958803
4	407149	549.087406992988	0.000382572182
4	407152	549.088987523539	0.001580530551
4	407159	549.091376024197	0.002388500658
4	407178	549.127826005889	0.036449981692
4	407219	549.157624763688	0.029798757799
4	407222	549.158760547767	0.001135784079
4	407239	549.170013177389	0.011252629622
4	407246	549.203894916254	0.033881738865
4	407253	549.215199125585	0.011304209331
4	407280	549.234227202953	0.019028077368
4	407295	549.243495005477	0.009267802524
4	407300	549.246908757859	0.003413752382
4	407313	549.254370928428	0.007462170569
4	407316	549.255253806262	0.000882877834
4	407339	549.271397992803	0.016144186541
4	407358	549.303299660084	0.031901667281
4	407369	549.322533654881	0.019233994797
4	407376	549.325068927417	0.002535272536
4	407407	549.346602439506	0.021533512089
4	407434	549.403045824538	0.056443385032
4	407439	549.406939492399	0.003893667861
4	407452	549.412759409865	0.005819917466
4	407461	549.415226932629	0.002467522764
4	407478	549.422628340672	0.007401408043
4	407485	549.427935119977	0.005306779305
4	407504	549.469255058433	0.041319938456
4	407531	549.515942473972	0.046687415539
4	407550	549.52591932654	0.009976852568
4	407557	549.530275362532	0.004356035992
4	407562	549.531700735884	0.001425373352
4	407565	549.534692678897	0.002991943013
4	407602	549.575857426938	0.041164748041
4	407609	549.591982946333	0.016125519395
4	407628	549.631019214105	0.039036267772
4	407639	549.633015061807	0.001995847702
4	407650	549.653647007412	0.020631945605
4	407653	549.653670250579	2.3243167e-05
4	407660	549.657139156153	0.003468905574
4	407727	549.712183084159	0.055043928006
4	407734	549.720257511313	0.008074427154
4	407749	549.739912526122	0.019655014809
4	407756	549.75765814372	0.017745617598
4	407779	549.830780315729	0.073122172009
4	407846	549.9012145371	0.070434221371
4	407873	549.941878474539	0.040663937439
4	407876	549.942121455556	0.000242981017
4	407903	549.987016765655	0.044895310099
4	407906	549.987310366934	0.000293601279
4	407913	549.990359015584	0.00304864865
4	407920	549.996427053495	0.006068037911
4	407935	550.006252482933	0.009825429438
4	407938	550.006716831415	0.000464348482
4	407953	550.019657731094	0.012940899679
4	407960	550.026010787384	0.00635305629
4	407987	550.062885710781	0.036874923397
4	408014	550.133633032118	0.070747321337
4	408029	550.158445927833	0.024812895715
4	408052	550.174897302922	0.016451375089
4	408063	550.180713627592	0.00581632467
4	408070	550.189014371626	0.008300744034
4	408085	550.207168728309	0.018154356683
4	408100	550.232950771047	0.025782042738
4	408119	550.246034695458	0.013083924411
4	408138	550.294285487393	0.048250791935
4	408145	550.299371268515	0.005085781122
4	408170	550.322679894993	0.023308626478
4	408175	550.324675077358	0.001995182365
4	408218	550.407997418396	0.083322341038
4	408221	550.409433835572	0.001436417176
4	408258	550.467929365859	0.058495530287
4	408261	550.468898821339	0.00096945548
4	408264	550.469432505673	0.000533684334
4	408275	550.47367832108	0.004245815407
4	408286	550.475942246562	0.002263925482
4	408307	550.492382422573	0.016440176011
4	408310	550.492742862891	0.000360440318
4	408337	550.558561718899	0.065818856008
4	408356	550.575998490633	0.017436771734
4	408359	550.576393859286	0.000395368653
4	408368	550.580359992786	0.0039661335
4	408381	550.584723242631	0.004363249845
4	408400	550.615159088568	0.030435845937
4	408427	550.657189628487	0.042030539919
4	408432	550.659037544427	0.00184791594
4	408439	550.659783095468	0.000745551041
4	408512	550.76002846331	0.100245367842
4	408515	550.760169904947	0.000141441637
4	408554	550.845123828197	0.08495392325
4	408591	550.876119760363	0.030995932166
4	408608	550.88814846363	0.012028703267
4	408639	550.963978996418	0.075830532788
4	408646	550.972139589745	0.008160593327
4	408649	550.972448594052	0.000309004307
4	408692	551.003575554723	0.031126960671
4	408701	551.007554666225	0.003979111502
4	408704	551.00762479423	7.0128005e-05
4	408719	551.048532166338	0.040907372108
4	408722	551.049778752561	0.001246586223
4	408725	551.051304850444	0.001526097883
4	408740	551.064287847158	0.012982996714
4	408743	551.065500970687	0.001213123529
4	408750	551.077044983087	0.0115440124
4	408757	551.102011234028	0.024966250941
4	408790	551.191479434427	0.089468200399
4	408795	551.192939082339	0.001459647912
4	408822	551.225974440172	0.033035357833
4	408853	551.25225988286	0.026285442688
4	408864	551.260964882339	0.008704999479
4	408895	551.308465940642	0.047501058303
4	408958	551.360730960963	0.052265020321
4	408969	551.39060413643	0.029873175467
4	408976	551.39469772596	0.00409358953
4	408987	551.399764185356	0.005066459396
4	408994	551.402861943025	0.003097757669
[...]
5	1095527	1486.263845595846	0.871098931404
5	1095572	1486.341565854059	3.952340717556
5	1095583	1486.345530032714	2.255432272192
5	1095618	1486.385661220143	1.553623246118
5	1095625	1486.387250064384	0.798066149547
5	1095644	1486.420480692525	0.834714626667
5	1095651	1486.422696936672	0.808375844689
5	1095686	1486.48706847066	4.664867952015
5	1095697	1486.492548054704	1.549659341585
5	1095700	1486.492702914215	0.000154859511
5	1095703	1486.493358371618	0.000655457403
5	1095710	1486.497647788191	1.545665492633
5	1095717	1486.499793752936	1.548588574195
5	1095732	1486.528265294823	2.280485026701
5	1095747	1486.538957998123	0.0106927033
5	1095754	1486.540161344348	0.001203346225
5	1095765	1486.543208719865	0.003047375517
5	1095768	1486.543408093062	0.000199373197
5	1095775	1486.579729457912	4.010129313943
5	1095794	1486.609573225167	0.741993536908
5	1095865	1486.745002466398	0.691942230197
5	1095868	1486.748646259664	0.003643793266
5	1095903	1486.826106933359	2.359661983217
5	1095978	1486.997413258166	1.650805768522
5	1095984	1487.001600647917	0.004187389751
5	1095991	1487.003924051619	0.798379120281
5	1095994	1487.004053537413	0.000129485794
5	1096037	1487.064878594639	2.44086483995
5	1096052	1487.086886092287	2.329815908614
5	1096075	1487.125411952555	2.30068864168
5	1096098	1487.143822170389	2.35235333817
5	1096117	1487.168330004614	3.075218420098
5	1096132	1487.177892488566	0.792231268423
5	1096155	1487.222670102837	0.802189410312
5	1096226	1487.286088445392	2.294793558972
5	1096261	1487.346455620389	3.113388168092
5	1096296	1487.399544505061	0.789971279894
5	1096311	1487.41635826703	0.016813761969
5	1096316	1487.416944143267	0.000585876237
5	1096329	1487.427533560581	0.010589417314
5	1096364	1487.49271651494	3.117964511442
5	1096367	1487.492751620442	3.5105502e-05
5	1096408	1487.525424007375	3.884780792982
5	1096425	1487.547344933999	10.93056774537
5	1096436	1487.552121242096	0.004776308097
5	1096447	1487.607658512589	8.936802920119
5	1096478	1487.640658880491	2.424183015002
5	1096501	1487.694505983978	6.966390764574
5	1096508	1487.699513838312	3.144155299103
5	1096511	1487.700663600077	0.001149761765
5	1096514	1487.703676648898	0.003013048821
5	1096561	1487.739026525607	0.73742587769
5	1096584	1487.749251929334	0.745198391921
5	1096607	1487.805109166333	1.559512518073
5	1096614	1487.807122751192	1.56294580801
5	1096641	1487.890288745573	1.548722891514
5	1096676	1487.922042692467	0.753712687853
5	1096699	1487.941444160932	1.554194096548
5	1096706	1487.942135682287	0.000691521355
5	1096709	1487.942580298924	0.000444616637
5	1096739	1488.043157018296	1.620460081624
5	1096762	1488.102441731424	1.602647978488
5	1096791	1488.126050523735	1.628402735544
5	1096794	1488.130816730955	0.844728285563
5	1096801	1488.133316686815	0.00249995586
5	1096810	1488.137363826457	0.011313302722
5	1096857	1488.22757148513	3.945701123861
5	1096864	1488.230069816047	0.002498330917
5	1096891	1488.266803943412	0.77405232297
5	1096902	1488.294598717076	5.588944750945
5	1096905	1488.294972623423	0.000373906347
5	1096912	1488.296368421403	9.79830769696
5	1096923	1488.299926239712	0.003557818309
5	1096926	1488.300401428819	0.000475189107
5	1096953	1488.326643227564	3.202078634513
5	1096988	1488.382173164527	0.774514651938
5	1097111	1488.537190184419	3.905524261787
5	1097118	1488.541161477217	0.791909547883
5	1097133	1488.566917639154	0.759794887962
5	1097162	1488.57720844039	0.772099274057
5	1097187	1488.594007621467	2.330162025621
5	1097190	1488.596433614078	0.002425992611
5	1097265	1488.762442375194	0.719285356898
5	1097268	1488.76383126845	0.001388893256
5	1097287	1488.780599041963	0.678157310539
5	1097302	1488.862015472064	3.128422022376
5	1097305	1488.863165024294	0.00114955223
5	1097308	1488.863378528805	0.000213504511
5	1097311	1488.866124590678	0.002746061873
5	1097324	1488.870337216935	0.732973390478
5	1097337	1488.935349816233	2.355620358321
5	1097340	1488.937862328691	0.002512512458
5	1097343	1488.938003864973	0.000141536282
5	1097350	1488.943228754283	0.00522488931
5	1097353	1488.943451130166	0.000222375883
5	1097383	1489.027073760657	3.075788391346
5	1097458	1489.141854014193	0.815210786629
5	1097485	1489.190265134601	3.046258829683
5	1097500	1489.253543870451	7.772136278109
5	1097503	1489.253637166852	9.3296401e-05
5	1097518	1489.265568853149	1.561892204251
5	1097575	1489.430839381945	6.363849591879
5	1097580	1489.433556225692	0.002716843747
5	1097619	1489.514814445957	1.624525700384
5	1097642	1489.538824013453	0.971906374299
5	1097685	1489.589399149474	1.667356457007
5	1097696	1489.592057677602	0.002658528128
5	1097705	1489.614090688153	2.436198199587
5	1097730	1489.626558010696	1.683977711772
5	1097777	1489.713243736689	1.579927049874
5	1097824	1489.782901276192	1.552831460145
5	1097827	1489.783330136709	0.000428860517
5	1097830	1489.784189877352	0.000859740643
5	1097841	1489.803594972265	0.019405094913
5	1097848	1489.811491431692	0.007896459427
5	1097851	1489.812277147033	0.000785715341
5	1097862	1489.838917122739	0.811843362082
5	1097873	1489.843963248735	9.24525368035
5	1097908	1489.872487190641	1.572085761822
5	1097963	1489.980008767967	4.80240811087
5	1097988	1490.033306589005	3.207199655646
5	1098013	1490.094050104373	2.399544120395
5	1098028	1490.112877918585	4.786689281259
5	1098035	1490.116683129255	0.00380521067
5	1098046	1490.166338755084	3.976091381188
5	1098077	1490.207627746602	1.666466269385
5	1098092	1490.217979204622	7.903396361022
5	1098143	1490.262815535716	0.748001089759
5	1098146	1490.263078740993	0.000263205277
5	1098153	1490.265517544289	0.002438803296
5	1098180	1490.338007054525	7.082002344655
5	1098251	1490.471884971319	1.708053702869
5	1098278	1490.48232231513	3.259652212293
5	1098299	1490.494076179901	0.011753864771
5	1098352	1490.590496467137	0.751579344398
5	1098391	1490.640648121775	2.345675498352
5	1098410	1490.649942024028	0.777454833387
5	1098413	1490.650543706619	0.000601682591
5	1098416	1490.650638989583	9.5282964e-05
5	1098419	1490.651732569542	0.001093579959
5	1098426	1490.657975172921	5.513295820262
5	1098433	1490.662079195336	0.004104022415
5	1098440	1490.690265373253	3.164841365878
5	1098473	1490.731267265809	1.589413251616
5	1098486	1490.734312965484	0.003045699675
5	1098489	1490.734455000307	0.000142034823
5	1098500	1490.74535287369	4.612764417492
5	1098515	1490.765163237147	1.574898102546
5	1098550	1490.814373690316	0.720323585943
5	1098555	1490.816913791998	0.002540101682
5	1098558	1490.818496414616	0.701813285361
5	1098623	1490.885422059448	2.308213619058
5	1098650	1490.988167215275	0.722649670986
5	1098673	1491.003989897184	5.525125824863
5	1098706	1491.055867993467	3.912045823078
5	1098713	1491.068081916972	4.722551884258
5	1098732	1491.077033131527	1.462942443374
5	1098743	1491.083368291569	1.456810280873
5	1098746	1491.083708091969	0.0003398004
5	1098753	1491.085925512974	0.008892381447
5	1098768	1491.094606839545	4.607538368885
5	1098783	1491.142805969393	0.670920998074
5	1098786	1491.14295917595	0.000153206557
5	1098797	1491.164445023436	2.298320432758
5	1098816	1491.20265512201	1.489411385321
5	1098873	1491.310344215772	3.882810655191
5	1098878	1491.311084356893	0.000740141121
5	1098889	1491.319908728199	0.729412261062
5	1098904	1491.326559306473	0.01547494958
5	1098907	1491.32691917266	0.000359866187
5	1098914	1491.328886566979	0.00897783878
5	1098933	1491.344135532624	14.22249693119
5	1098962	1491.37846714627	0.737819024495
5	1098975	1491.380637843785	4.631991584121
5	1098982	1491.383444275482	0.002806431697
5	1098989	1491.389452034188	0.727372838852
5	1099010	1491.407224582519	3.855103340423
5	1099013	1491.408174943825	1.428166175858
5	1099018	1491.41046815073	0.003243568211
5	1099059	1491.459105227086	0.693941989939
5	1099068	1491.464323624157	0.005218397071
5	1099079	1491.467038365967	0.00271474181
5	1099084	1491.468386091877	0.00134772591
5	1099087	1491.469285117633	3.828626237142
5	1099128	1491.564461791736	5.384075323403
5	1099141	1491.576478052054	0.012016260318
5	1099166	1491.62966715483	0.744245095382
5	1099185	1491.648562458702	4.561676366415
5	1099204	1491.668124746784	3.071691132706
5	1099245	1491.731062020129	1.393054965604
5	1099256	1491.734274479504	0.73028458232
5	1099259	1491.734983121621	0.679115128154
5	1099312	1491.808185600645	2.216127923043
5	1099335	1491.839076938129	0.696117762179
5	1099376	1491.896781868689	1.402705688788
5	1099389	1491.921501452955	4.575045832566
5	1099392	1491.921504218226	2.765271e-06
5	1099403	1491.926825860947	5.383417767885
5	1099410	1491.934557013139	0.013052794913
5	1099413	1491.934978966069	0.00042195293
5	1099420	1491.939083641244	2.995632511078
5	1099443	1491.967516280074	6.053710287216
5	1099446	1491.9678192292	0.000302949126
5	1099449	1491.96808295263	0.00026372343
5	1099456	1491.977891401932	0.650972229272
5	1099467	1491.999463799134	3.732659855722
5	1099501	1492.047896954832	1.39616438529
5	1099512	1492.055273582289	0.665821548101
5	1099523	1492.091643178201	0.708198902719
5	1099530	1492.099645632211	0.00800245401
5	1099533	1492.099954959578	0.000309327367
5	1099560	1492.143437187067	0.732969036337
5	1099591	1492.195907786335	2.16260119733
5	1099610	1492.213803106408	6.056988817845
5	1099613	1492.215623936884	0.001820830476
5	1099620	1492.24497528573	0.776589193853
5	1099623	1492.246588835227	0.001613549497
5	1099626	1492.246944550416	0.000355715189
5	1099633	1492.249488526758	0.780203409125
5	1099668	1492.34465448568	0.768176433626
5	1099675	1492.349751043843	4.610724518236
5	1099686	1492.362709056886	2.155081310284
5	1099705	1492.429434366184	2.995878140492
5	1099752	1492.461125183252	5.335713230697
5	1099759	1492.463968055346	0.728984933725
5	1099766	1492.470978401443	0.007010346097
5	1099781	1492.47806083214	1.409978915168
5	1099840	1492.597620784502	6.104262412884
5	1099845	1492.598457371511	0.000836587009
5	1099854	1492.617287319287	3.836688277324
5	1099873	1492.639965462348	1.437310340338
5	1099880	1492.646282681568	0.749500812879
5	1099909	1492.655494299206	3.785157082271
5	1099920	1492.659545249815	0.724566283746
5	1099923	1492.659640624305	0.019675161957
5	1099998	1492.730785168566	1.352318022296
5	1100001	1492.731364435891	0.683467481059
5	1100026	1492.769597707226	0.669642747648
5	1100045	1492.823257504523	2.13299213127
5	1100135	1493.025546540162	2.207050125546
5	1100138	1493.026095816257	0.000549276095
5	1100181	1493.100252952147	4.563062767728
5	1100212	1493.143387476911	6.078508882272
5	1100243	1493.203258995353	0.73228059391
5	1100258	1493.206782486418	0.728721654278
5	1100277	1493.253191797939	1.52212977781
5	1100284	1493.260683295894	1.52640881639
5	1100299	1493.273065426558	2.187139913584
5	1100318	1493.299849098963	1.460772160834
5	1100325	1493.312740978631	2.218134139086
5	1100328	1493.317103120887	0.004362142256
5	1100343	1493.344157234166	0.745699862655
5	1100390	1493.393619766606	0.747337085038
5	1100397	1493.395243786641	0.001624020035
5	1100400	1493.395426315024	0.000182528383
5	1100455	1493.484741095235	2.140605562611
5	1100458	1493.484744573312	3.478077e-06
5	1100473	1493.491603495013	1.492139695879
5	1100518	1493.537191275265	0.767593568039
5	1100521	1493.537219639194	0.713962134671
5	1100590	1493.693757114899	4.440119948047
5	1100609	1493.700511204184	0.674415387927
5	1100620	1493.705842925019	0.005331720835
5	1100627	1493.71218014869	4.446611295541
5	1100654	1493.726976294941	1.382321809261
5	1100677	1493.765559850077	0.66530689793
5	1100696	1493.783870186276	9.166669333984
5	1100707	1493.842268503601	3.624289298979
5	1100738	1493.861492257644	2.19336751086
5	1100761	1493.917850234658	4.379026221205
5	1100780	1493.97284399002	0.766061503602
5	1100783	1493.972990106552	0.000146116532
5	1100786	1493.973096485048	0.000106378496
5	1100800	1494.004825942288	0.744142646394
5	1100815	1494.014907722256	0.741842295698
5	1100826	1494.02605196178	2.217866361135
5	1100873	1494.056452120076	0.739348999189
5	1100876	1494.05716424535	0.000712125274
5	1100879	1494.057474776319	0.000310530969
5	1100886	1494.067640942562	0.723483708396
5	1100901	1494.080104873075	0.012463930513
5	1100924	1494.160078804054	1.504584504848
5	1100963	1494.190924778843	1.531284154538
5	1100974	1494.19562977809	0.004704999247
5	1100977	1494.19593101673	0.00030123864
5	1101004	1494.227400186248	0.735796691235
5	1101007	1494.227469079549	6.8893301e-05
5	1101012	1494.228833624698	0.001364545149
5	1101033	1494.234790056191	2.256898654259
5	1101076	1494.312756851499	2.904581907674
5	1101087	1494.333902188191	2.190465001124
5	1101090	1494.335813085699	0.001910897508
5	1101105	1494.351886244742	5.969713080215
5	1101140	1494.378689007156	3.644234006849
5	1101159	1494.418754365315	2.169265838557
5	1101166	1494.424714225309	0.005959859994
5	1101199	1494.480109958933	3.663196166935
5	1101240	1494.540143454247	0.827963305557
5	1101243	1494.541132148849	0.000988694602
5	1101270	1494.595996861985	0.812126675709
5	1101277	1494.597857281732	0.001860419747
5	1101280	1494.598493801303	0.000636519571
5	1101283	1494.598972447032	0.000478645729
5	1101306	1494.61601473463	0.773746231029
5	1101377	1494.702842523796	0.729746038748
5	1101388	1494.725338106553	0.720512164265
5	1101403	1494.815664296046	0.80075657379
5	1101406	1494.818111069411	0.002446773365
5	1101409	1494.818257583391	0.00014651398
5	1101456	1494.907895685449	2.981069824502
5	1101507	1494.960448707564	2.300903457749
5	1101518	1494.964833991641	5.152556844608
5	1101573	1495.052161078166	0.817371021975
5	1101628	1495.116946534737	2.921038748402
5	1101631	1495.118223801849	0.001277267112
5	1101702	1495.182682566181	1.488925451282
5	1101709	1495.201304959807	0.721195000874
5	1101716	1495.220619835751	1.514776910732
5	1101743	1495.228822063498	2.879071019655
5	1101750	1495.230705287738	1.503728992797
5	1101765	1495.262287302705	0.663314855673
5	1101804	1495.310875353148	3.681208198318
5	1101819	1495.319379935335	2.175992458424
5	1101826	1495.332177783401	1.470685525757
5	1101829	1495.33225838088	8.0597479e-05
5	1101832	1495.332573767864	0.000315386984
5	1101851	1495.406983559543	2.945858376291
5	1101854	1495.409080119337	0.002096559794
5	1101869	1495.417265784156	0.008185664819
5	1101872	1495.418260621374	0.000994837218
5	1101911	1495.513320763699	9.901470272313
5	1101924	1495.536826675383	0.718569091992
5	1101941	1495.539369359226	2.922082039939
5	1101944	1495.539860959778	2.240011860815
5	1101949	1495.543975790564	0.004606431338
5	1101962	1495.548512220224	0.00453642966
5	1101977	1495.562172882494	1.504698106175
5	1101992	1495.620500420254	0.712604734805
5	1102021	1495.673935560707	0.713486853143
5	1102034	1495.684016039198	3.744932397954
5	1102041	1495.689249823967	1.493318807237
5	1102068	1495.711107809328	3.743024856698
5	1102083	1495.719466271104	0.008358461776
5	1102138	1495.814917866528	3.759644284239
5	1102169	1495.846452633885	1.533695782386
5	1102243	1496.039426892928	0.838121933121
5	1102256	1496.055929223922	0.835309388171
5	1102259	1496.056804122878	1.515671974029
5	1102264	1496.057977752176	0.001173629298
5	1102271	1496.066047363239	0.008069611063
5	1102278	1496.071257075589	0.842435012091
5	1102285	1496.077078091906	0.005821016317
5	1102292	1496.093157107235	0.862451819497
5	1102299	1496.099911035171	0.006753927936
5	1102306	1496.106686674588	0.006775639417
5	1102309	1496.106935950201	0.000249275613
5	1102340	1496.132672032422	3.703237666238
5	1102347	1496.139155881974	0.006483849552
5	1102350	1496.13965259253	0.000496710556
5	1102357	1496.142227650149	0.002575057619
5	1102360	1496.143615822996	0.001388172847
5	1102363	1496.144088307514	0.000472484518
5	1102382	1496.180080735174	0.869205382026
5	1102405	1496.203162011901	4.554599553199
5	1102412	1496.209475277472	0.006313265571
5	1102415	1496.209692508301	0.000217230829
5	1102430	1496.216411810716	2.298561576058
5	1102437	1496.21825996315	5.230092747875
5	1102444	1496.245216740784	0.82695611941
5	1102455	1496.250830357861	1.547987834065
5	1102458	1496.250960918197	0.000130560336
5	1102461	1496.252021022897	0.0010601047
5	1102464	1496.254655729236	0.002634706339
5	1102511	1496.412176074121	5.247731050685
5	1102518	1496.414543766536	2.388491804756
5	1102553	1496.443295516034	0.88112263354
5	1102608	1496.511351676263	6.667388427528
5	1102631	1496.527988728427	0.843972689229
5	1102666	1496.568847429648	0.849381158544
5	1102669	1496.572395635161	0.003548205513
5	1102740	1496.752420577748	2.400534333006
5	1102743	1496.755310293712	0.002889715964
5	1102774	1496.850829339006	2.426115113697
5	1102777	1496.851142713832	0.000313374826
5	1102812	1496.91975793379	0.853710570551
5	1102827	1496.930945322928	0.853867231022
5	1102881	1497.085717147661	0.905636412487
5	1102896	1497.09909355828	0.882681747564
5	1102903	1497.107090138913	0.007996580633
5	1102918	1497.121935416322	0.876718675538
5	1102961	1497.184637859729	6.10092976776
5	1102972	1497.189711410136	1.676390646437
5	1102979	1497.196645376526	0.784469302405
5	1103018	1497.21538748879	1.675526529012
5	1103037	1497.23114712111	3.071068317056
5	1103040	1497.233812178749	0.002665057639
5	1103067	1497.254221258706	2.289387267065
5	1103082	1497.284885767564	0.773534091301
5	1103085	1497.285404962357	0.000519194793
5	1103176	1497.425055058071	3.887863782806
5	1103179	1497.425113770104	5.8712033e-05
5	1103232	1497.495620396193	3.116931389037
5	1103235	1497.497497060055	1.65104442617
5	1103270	1497.52213199664	5.275187446224
5	1103277	1497.52487045478	0.00273845814
5	1103298	1497.551525982636	1.495596758714
5	1103305	1497.553425506635	7.387086751551
5	1103316	1497.560697527958	0.62975220503
5	1103347	1497.582890477781	1.47595452758
5	1103354	1497.583338564582	0.000448086801
5	1103383	1497.599869092242	3.834309242165
5	1103386	1497.600589423465	0.04716391683
5	1103399	1497.609043843368	2.346756540663
5	1103422	1497.645404719544	1.50131641203
5	1103425	1497.645560520042	0.000155800498
5	1103474	1497.776877733136	3.051539626583
5	1103479	1497.778363896448	0.001486163312
5	1103486	1497.805924750758	4.552732952819
5	1103501	1497.842033229837	0.645387853311
5	1103512	1497.85498311938	0.665271709244
5	1103523	1497.874369123394	0.019386004014
5	1103530	1497.876313333356	0.001944209962
5	1103549	1497.888208444631	2.339696224407
5	1103588	1497.924614881758	0.690802703009
5	1103595	1497.934854175457	3.854749302382
5	1103606	1497.999304774056	0.74508351535
5	1103648	1498.075322851976	3.846489227278
5	1103653	1498.076485876707	0.001163024731
5	1103658	1498.078295353961	0.001809477254
5	1103669	1498.084631652687	0.006336298726
5	1103676	1498.086236161695	0.001604509008
5	1103687	1498.089433820151	0.003197658456
5	1103754	1498.178705084807	3.060481282958
5	1103757	1498.179717494858	0.001012410051
5	1103844	1498.267128694105	3.084446127924
5	1103915	1498.335886090497	0.736016998255
5	1103918	1498.337020463994	0.001134373497
5	1103925	1498.338785085826	0.729741242458
5	1103984	1498.526762231971	1.404826815649
5	1104039	1498.607270809617	1.422632949888
5	1104058	1498.664345232748	3.127518557365
5	1104193	1498.897990445423	0.808556625272
5	1104196	1498.897996743083	6.29766e-06
5	1104207	1498.906903379156	3.85474230099
5	1104241	1499.004027870376	5.466808231182
5	1104244	1499.0051793291	0.001151458724
5	1104247	1499.007988427387	0.002809098287
5	1104262	1499.060402300407	1.562905240352
5	1104293	1499.105823336293	2.350513042581
5	1104320	1499.12499489851	1.60012444373
5	1104323	1499.125608052985	0.000613154475
5	1104328	1499.126404738193	0.000796685208
5	1104369	1499.258504270476	1.657914847011
5	1104404	1499.304110837887	4.688096103257
5	1104443	1499.367472409232	1.72191188919
5	1104474	1499.411696382876	3.193436419726
5	1104505	1499.565828094104	1.759903343346
5	1104512	1499.577110959812	17.091905410139
5	1104555	1499.620881517493	3.206337750957
5	1104582	1499.660797367318	4.040296947064
5	1104597	1499.682174279214	1.682869505158
5	1104640	1499.776442131717	4.08719230775
5	1104647	1499.78476443123	3.212368796069
5	1104670	1499.932900539825	4.117982673297
5	1104673	1499.934264379819	0.001363839994
5	1104688	1499.939801134958	2.514687364854
5	1104699	1499.944812212304	7.213447776413

