version 2
run scenario1-1-20211222-17:37:03-12112
attr configname scenario1
attr datetime 20211222-17:37:03
attr experiment scenario1
attr inifile omnetpp.ini
attr iterationvars ""
attr iterationvarsf ""
attr measurement ""
attr network Network
attr processid 12112
attr repetition 1
attr replication #1
attr resultdir results
attr runnumber 1
attr seedset 1
param **.server.p1 0.2
param **.server.p2 0.385
param **.clients.num_clients 60
param **.processor.service_rate 1000
param **.disk.service_rate 300
param **.webServer.serv_rate_w 80
param **.clients.timeWindow 5s

vector 0 Network.clients pkt_counter:vector ETV
attr source pkt_counter_s
vector 1 Network.server.processor processor_backlog:vector ETV
attr source processor_backlog_s
vector 2 Network.server.disk disk_backlog:vector ETV
attr source disk_backlog_s
vector 3 Network.webServer wserver_backlog:vector ETV
attr source wserver_backlog_s
vector 4 Network.clients interarrival_time:vector ETV
attr source interarrival_time_s
vector 5 Network.clients response_time:vector ETV
attr source response_time_s
4	367266	500.007874821199	0.014951486918
4	367293	500.047806946956	0.039932125757
4	367316	500.05826416403	0.010457217074
4	367319	500.058928035352	0.000663871322
4	367326	500.071321641395	0.012393606043
4	367337	500.124848835077	0.053527193682
4	367348	500.137882921896	0.013034086819
4	367355	500.140543473741	0.002660551845
4	367418	500.22116321764	0.080619743899
4	367429	500.241138536318	0.019975318678
4	367432	500.241490673841	0.000352137523
4	367439	500.314561782004	0.073071108163
4	367468	500.360717266298	0.046155484294
4	367521	500.452781071125	0.092063804827
4	367584	500.524480896601	0.071699825476
4	367627	500.562565072654	0.038084176053
4	367644	500.57927491379	0.016709841136
4	367649	500.58010177923	0.00082686544
4	367660	500.585876771716	0.005774992486
4	367663	500.586146425421	0.000269653705
4	367668	500.586838590569	0.000692165148
4	367681	500.595019322365	0.008180731796
4	367736	500.692988362225	0.09796903986
4	367795	500.728037053053	0.035048690828
4	367838	500.827278499222	0.099241446169
4	367843	500.828653752673	0.001375253451
4	367846	500.829922947457	0.001269194784
4	367849	500.831221340892	0.001298393435
4	367852	500.832358690443	0.001137349551
4	367857	500.834160083013	0.00180139257
4	367876	500.847349827731	0.013189744718
4	367883	500.853019970708	0.005670142977
4	367902	500.860155102876	0.007135132168
4	367937	500.891090929072	0.030935826196
4	367980	500.964138820766	0.073047891694
4	367987	500.966143430302	0.002004609536
4	368084	501.062152143833	0.096008713531
4	368087	501.063862656917	0.001710513084
4	368102	501.095009869598	0.031147212681
4	368115	501.102284111757	0.007274242159
4	368118	501.102835916667	0.00055180491
4	368127	501.1073558903	0.004519973633
4	368130	501.108418049318	0.001062159018
4	368141	501.112452912326	0.004034863008
4	368180	501.143497457374	0.031044545048
4	368183	501.144620677967	0.001123220593
4	368186	501.145458600612	0.000837922645
4	368245	501.211483428731	0.066024828119
4	368264	501.275607408637	0.064123979906
4	368287	501.302354337965	0.026746929328
4	368294	501.3092588264	0.006904488435
4	368305	501.322889038698	0.013630212298
4	368328	501.373673411836	0.050784373138
4	368333	501.374023257258	0.000349845422
4	368344	501.37678887436	0.002765617102
4	368353	501.379377786708	0.002588912348
4	368392	501.40735831794	0.027980531232
4	368401	501.41224976383	0.00489144589
4	368412	501.418652308966	0.006402545136
4	368425	501.425564889853	0.006912580887
4	368438	501.43497430994	0.009409420087
4	368443	501.437948040982	0.002973731042
4	368462	501.44597111004	0.008023069058
4	368485	501.542235945631	0.096264835591
4	368500	501.545034218731	0.0027982731
4	368523	501.581057144957	0.036022926226
4	368542	501.593503200573	0.012446055616
4	368557	501.59791773194	0.004414531367
4	368572	501.649952671744	0.052034939804
4	368589	501.666260192676	0.016307520932
4	368602	501.678329933048	0.012069740372
4	368617	501.687134399926	0.008804466878
4	368652	501.71294720637	0.025812806444
4	368667	501.734636566421	0.021689360051
4	368762	501.88242617601	0.147789609589
4	368771	501.888237242612	0.005811066602
4	368806	501.899667963126	0.011430720514
4	368809	501.900667939018	0.000999975892
4	368834	501.915305293979	0.014637354961
4	368849	501.935538165247	0.020232871268
4	368887	502.011824539577	0.07628637433
4	368898	502.019408140485	0.007583600908
4	368917	502.027829791614	0.008421651129
4	368964	502.067576378867	0.039746587253
4	368971	502.069972120323	0.002395741456
4	368986	502.077771163008	0.007799042685
4	369001	502.082123275812	0.004352112804
4	369008	502.08628504197	0.004161766158
4	369059	502.157463759675	0.071178717705
4	369062	502.157472835292	9.075617e-06
4	369083	502.174568796696	0.017095961404
4	369086	502.175199691797	0.000630895101
4	369091	502.175951045298	0.000751353501
4	369094	502.176118210572	0.000167165274
4	369105	502.182055902138	0.005937691566
4	369116	502.187208771743	0.005152869605
4	369123	502.199182660347	0.011973888604
4	369126	502.200839573029	0.001656912682
4	369129	502.20105378601	0.000214212981
4	369132	502.202198818385	0.001145032375
4	369143	502.290809005304	0.088610186919
4	369154	502.300416940007	0.009607934703
4	369177	502.350187231091	0.049770291084
4	369192	502.385905739436	0.035718508345
4	369199	502.408979310771	0.023073571335
4	369234	502.490325308263	0.081345997492
4	369237	502.490588997736	0.000263689473
4	369268	502.536279570792	0.045690573056
4	369327	502.720601141551	0.184321570759
4	369342	502.738869642358	0.018268500807
4	369369	502.762535981571	0.023666339213
4	369400	502.781675527956	0.019139546385
4	369435	502.826927238119	0.045251710163
4	369450	502.846202870649	0.01927563253
4	369485	502.897289039482	0.051086168833
4	369492	502.905585369876	0.008296330394
4	369499	502.906987707273	0.001402337397
4	369577	503.040272072461	0.133284365188
4	369596	503.068043651779	0.027771579318
4	369603	503.075989392793	0.007945741014
4	369618	503.07897128829	0.002981895497
4	369623	503.08246434093	0.00349305264
4	369648	503.097750730093	0.015286389163
4	369659	503.100858645525	0.003107915432
4	369692	503.211619879217	0.110761233692
4	369695	503.211639950445	2.0071228e-05
4	369724	503.240968694846	0.029328744401
4	369727	503.24104335171	7.4656864e-05
4	369758	503.253391368641	0.012348016931
4	369761	503.253480519987	8.9151346e-05
4	369764	503.254418309679	0.000937789692
4	369803	503.316075572078	0.061657262399
4	369806	503.318089738735	0.002014166657
4	369837	503.387656432525	0.06956669379
4	369840	503.387993996236	0.000337563711
4	369845	503.389305003089	0.001311006853
4	369860	503.394551193484	0.005246190395
4	369863	503.395571903391	0.001020709907
4	369868	503.396018459568	0.000446556177
4	369887	503.409469153579	0.013450694011
4	369910	503.460774360468	0.051305206889
4	369929	503.481671489506	0.020897129038
4	370000	503.60720988285	0.125538393344
4	370003	503.607869282947	0.000659400097
4	370006	503.609455775206	0.001586492259
4	370009	503.609608334437	0.000152559231
4	370020	503.620276901361	0.010668566924
4	370055	503.721442530022	0.101165628661
4	370098	503.830923092852	0.10948056283
4	370113	503.849674800144	0.018751707292
4	370128	503.85152237679	0.001847576646
4	370139	503.877727002199	0.026204625409
4	370162	503.934764162548	0.057037160349
4	370209	503.968019633958	0.03325547141
4	370232	503.985320400454	0.017300766496
4	370241	503.988612965199	0.003292564745
4	370246	503.989229173974	0.000616208775
4	370272	504.008547946442	0.019318772468
4	370315	504.058447027253	0.049899080811
4	370338	504.148586454413	0.09013942716
4	370367	504.172404508735	0.023818054322
4	370384	504.180375083345	0.00797057461
4	370419	504.247475055922	0.067099972577
4	370446	504.263464907484	0.015989851562
4	370465	504.284189248329	0.020724340845
4	370468	504.285973488968	0.001784240639
4	370491	504.349576189267	0.063602700299
4	370494	504.34995024386	0.000374054593
4	370533	504.383694081111	0.033743837251
4	370576	504.4301039784	0.046409897289
4	370587	504.437923584902	0.007819606502
4	370590	504.43875710422	0.000833519318
4	370597	504.452371496554	0.013614392334
4	370616	504.503289099026	0.050917602472
4	370631	504.520938292556	0.01764919353
4	370634	504.521171244706	0.00023295215
4	370641	504.524119843984	0.002948599278
4	370672	504.542973988313	0.018854144329
4	370679	504.544087697341	0.001113709028
4	370698	504.579699125115	0.035611427774
4	370713	504.592558588718	0.012859463603
4	370748	504.654266335524	0.061707746806
4	370757	504.658796661427	0.004530325903
4	370802	504.692801919627	0.0340052582
4	370805	504.692991102973	0.000189183346
4	370808	504.693223348558	0.000232245585
4	370819	504.699847527079	0.006624178521
4	370886	504.827919723139	0.12807219606
4	370905	504.832905985354	0.004986262215
4	370916	504.837204712633	0.004298727279
4	370927	504.860713295783	0.02350858315
4	370950	504.884395668184	0.023682372401
4	370963	504.912310949175	0.027915280991
4	370968	504.912769552293	0.000458603118
4	371001	504.932514628214	0.019745075921
4	371024	504.939948745134	0.00743411692
4	371053	505.054540336149	0.114591591015
4	371064	505.075163115231	0.020622779082
4	371079	505.084369929797	0.009206814566
4	371106	505.114234215576	0.029864285779
4	371121	505.116887012419	0.002652796843
4	371132	505.141189600966	0.024302588547
4	371139	505.144913842053	0.003724241087
4	371142	505.150307914651	0.005394072598
4	371169	505.18020954478	0.029901630129
4	371180	505.187071386817	0.006861842037
4	371183	505.189084731479	0.002013344662
4	371194	505.196900336529	0.00781560505
4	371249	505.27685762363	0.079957287101
4	371264	505.306308469947	0.029450846317
4	371267	505.307746780494	0.001438310547
4	371274	505.361611353251	0.053864572757
4	371281	505.364679036976	0.003067683725
4	371284	505.367034178405	0.002355141429
4	371307	505.398966802922	0.031932624517
4	371310	505.40210792813	0.003141125208
4	371317	505.409871888173	0.007763960043
4	371332	505.439716894912	0.029845006739
4	371335	505.440372153498	0.000655258586
4	371362	505.461898492622	0.021526339124
4	371377	505.469010919305	0.007112426683
4	371392	505.482253264211	0.013242344906
4	371403	505.487108066518	0.004854802307
4	371408	505.489429723691	0.002321657173
4	371411	505.490998106742	0.001568383051
4	371414	505.491197072254	0.000198965512
4	371499	505.640530093425	0.149333021171
4	371528	505.667220857928	0.026690764503
4	371531	505.667376120198	0.00015526227
4	371556	505.686987610382	0.019611490184
4	371559	505.687903230698	0.000915620316
4	371562	505.688104198833	0.000200968135
4	371577	505.709522030349	0.021417831516
4	371590	505.718540633343	0.009018602994
4	371593	505.719097249884	0.000556616541
4	371598	505.721848107857	0.002750857973
4	371605	505.729180908585	0.007332800728
4	371612	505.732535241363	0.003354332778
4	371647	505.783100463152	0.050565221789
4	371690	505.873035501051	0.089935037899
4	371709	505.91118683274	0.038151331689
4	371720	505.917737165069	0.006550332329
4	371727	505.922788281345	0.005051116276
4	371750	505.968211025922	0.045422744577
4	371753	505.968764475633	0.000553449711
4	371756	505.969291652543	0.00052717691
4	371767	505.988022349151	0.018730696608
4	371778	505.99241002791	0.004387678759
4	371781	505.993093714514	0.000683686604
4	371811	506.012715682033	0.019621967519
4	371814	506.013558814054	0.000843132021
4	371825	506.020164456871	0.006605642817
4	371870	506.054629469042	0.034465012171
4	371875	506.054952236749	0.000322767707
4	371878	506.055919629647	0.000967392898
4	371909	506.079952879387	0.02403324974
4	371922	506.084614192322	0.004661312935
4	371925	506.085912565973	0.001298373651
4	371928	506.086228630694	0.000316064721
4	371931	506.086433829117	0.000205198423
4	371934	506.086652984554	0.000219155437
4	371955	506.102690142858	0.016037158304
4	371970	506.115793239958	0.0131030971
4	371981	506.122542113553	0.006748873595
4	372008	506.140429454943	0.01788734139
4	372047	506.159005529599	0.018576074656
4	372050	506.1595018189	0.000496289301
4	372073	506.180188070983	0.020686252083
4	372092	506.198470735861	0.018282664878
4	372117	506.232599071587	0.034128335726
4	372142	506.245788084767	0.01318901318
4	372177	506.282245900357	0.03645781559
4	372196	506.307645490966	0.025399590609
4	372201	506.308587773033	0.000942282067
4	372238	506.348219967788	0.039632194755
4	372273	506.437999977945	0.089780010157
4	372280	506.444261588916	0.006261610971
4	372347	506.558689060187	0.114427471271
4	372374	506.601519136657	0.04283007647
4	372405	506.623555405385	0.022036268728
4	372472	506.781008931474	0.157453526089
4	372495	506.850710504983	0.069701573509
4	372534	506.934621586593	0.08391108161
4	372557	506.941357123977	0.006735537384
4	372570	506.949825822614	0.008468698637
4	372575	506.951048572683	0.001222750069
4	372622	506.991301517063	0.04025294438
4	372650	507.000287050995	0.008985533932
4	372679	507.036434424312	0.036147373317
4	372694	507.066944267233	0.030509842921
4	372711	507.077172017309	0.010227750076
4	372716	507.077337288073	0.000165270764
4	372735	507.101855073013	0.02451778494
4	372738	507.102140063258	0.000284990245
4	372747	507.104516919077	0.002376855819
4	372756	507.114119197334	0.009602278257
4	372763	507.11619986061	0.002080663276
4	372772	507.119363249171	0.003163388561
4	372779	507.121034467433	0.001671218262
4	372810	507.13957224082	0.018537773387
4	372813	507.140114895786	0.000542654966
4	372826	507.14568658567	0.005571689884
4	372837	507.151757415048	0.006070829378
4	372840	507.153281191285	0.001523776237
4	372843	507.154393154131	0.001111962846
4	372886	507.179243173725	0.024850019594
4	372901	507.188168595481	0.008925421756
4	372950	507.269783560392	0.081614964911
4	372963	507.283658064551	0.013874504159
4	372974	507.301307758317	0.017649693766
4	372993	507.306191915901	0.004884157584
4	373000	507.321079669192	0.014887753291
4	373003	507.322634500714	0.001554831522
4	373018	507.343296434637	0.020661933923
4	373027	507.34872040678	0.005423972143
4	373048	507.369285213498	0.020564806718
4	373063	507.385818169937	0.016532956439
4	373070	507.387264279457	0.00144610952
4	373089	507.400239223785	0.012974944328
4	373096	507.403906395965	0.00366717218
4	373105	507.420420327931	0.016513931966
4	373108	507.421057552641	0.00063722471
4	373173	507.531693196256	0.110635643615
4	373188	507.542511542738	0.010818346482
4	373203	507.556147398569	0.013635855831
4	373214	507.575551807824	0.019404409255
4	373221	507.579158893003	0.003607085179
4	373240	507.600674877362	0.021515984359
4	373243	507.601181645191	0.000506767829
4	373250	507.604641777396	0.003460132205
4	373257	507.607345267202	0.002703489806
4	373272	507.620610360705	0.013265093503
4	373279	507.623699574984	0.003089214279
4	373318	507.64888854226	0.025188967276
4	373373	507.847293887049	0.198405344789
4	373396	507.867147372761	0.019853485712
4	373417	507.881414090944	0.014266718183
4	373420	507.881657539488	0.000243448544
4	373425	507.883503560277	0.001846020789
4	373456	507.909011100889	0.025507540612
4	373491	507.949204313383	0.040193212494
4	373498	507.951689217604	0.002484904221
4	373503	507.953847080503	0.002157862899
4	373508	507.955391295922	0.001544215419
4	373546	508.000479152738	0.045087856816
4	373557	508.008290763926	0.007811611188
4	373560	508.009327851071	0.001037087145
4	373591	508.027560385263	0.018232534192
4	373606	508.038818757467	0.011258372204
4	373623	508.095846291212	0.057027533745
4	373626	508.096204869147	0.000358577935
4	373639	508.108670698262	0.012465829115
4	373642	508.109105604536	0.000434906274
4	373653	508.11248856884	0.003382964304
4	373684	508.169189839219	0.056701270379
4	373691	508.172964716474	0.003774877255
4	373694	508.173971350564	0.00100663409
4	373761	508.272298579665	0.098327229101
4	373780	508.30269265171	0.030394072045
4	373787	508.303352428819	0.000659777109
4	373806	508.312537315736	0.009184886917
4	373825	508.31941825827	0.006880942534
4	373828	508.319744622145	0.000326363875
4	373831	508.321309791732	0.001565169587
4	373850	508.344729326132	0.0234195344
4	373861	508.352023669485	0.007294343353
4	373878	508.358987977608	0.006964308123
4	373893	508.403934059521	0.044946081913
4	373926	508.426011789476	0.022077729955
4	373945	508.484116243261	0.058104453785
4	373968	508.526037144279	0.041920901018
4	374039	508.715577019863	0.189539875584
4	374050	508.720610696314	0.005033676451
4	374065	508.770810880309	0.050200183995
4	374076	508.781054405046	0.010243524737
4	374099	508.806719131874	0.025664726828
4	374108	508.809103265575	0.002384133701
4	374125	508.827667990716	0.018564725141
4	374148	508.865881151549	0.038213160833
4	374277	508.936885841341	0.071004689792
4	374333	509.082123085054	0.145237243713
4	374348	509.097218802371	0.015095717317
4	374371	509.136366003344	0.039147200973
4	374378	509.143352500784	0.00698649744
4	374393	509.169409145026	0.026056644242
4	374396	509.169890023286	0.00048087826
4	374403	509.172738368528	0.002848345242
4	374412	509.202007277535	0.029268909007
4	374433	509.221897495737	0.019890218202
4	374456	509.254995898506	0.033098402769
4	374497	509.302173192908	0.047177294402
4	374518	509.324075873771	0.021902680863
4	374533	509.405192218189	0.081116344418
4	374584	509.521334684873	0.116142466684
4	374589	509.524012537392	0.002677852519
4	374602	509.539693065589	0.015680528197
4	374607	509.543915698482	0.004222632893
4	374612	509.553321450173	0.009405751691
4	374615	509.553565686018	0.000244235845
4	374618	509.554405095137	0.000839409119
4	374621	509.554545155946	0.000140060809
4	374644	509.591017321183	0.036472165237
4	374651	509.593375115457	0.002357794274
4	374658	509.597455287882	0.004080172425
4	374661	509.597760438016	0.000305150134
4	374672	509.606982649254	0.009222211238
4	374675	509.607017153812	3.4504558e-05
4	374686	509.612367168914	0.005350015102
4	374691	509.612722005841	0.000354836927
4	374700	509.618101104234	0.005379098393
4	374711	509.621629842335	0.003528738101
4	374766	509.789467076339	0.167837234004
4	374787	509.810618912117	0.021151835778
4	374824	509.881640384762	0.071021472645
4	374841	509.887287201375	0.005646816613
4	374846	509.891146472261	0.003859270886
4	374889	509.990230005551	0.09908353329
4	374908	510.024463516185	0.034233510634
4	374927	510.035821661439	0.011358145254
4	374950	510.081092901833	0.045271240394
4	374985	510.108842269605	0.027749367772
4	375008	510.167468728421	0.058626458816
4	375019	510.178558067601	0.01108933918
4	375058	510.22234142514	0.043783357539
4	375073	510.273461231013	0.051119805873
4	375100	510.325370352325	0.051909121312
4	375103	510.325397998728	2.7646403e-05
4	375114	510.347842100065	0.022444101337
4	375121	510.351437482633	0.003595382568
4	375132	510.358579265939	0.007141783306
4	375201	510.42740059491	0.068821328971
4	375212	510.432175939497	0.004775344587
4	375215	510.433144450461	0.000968510964
4	375224	510.43684713606	0.003702685599
4	375323	510.553742561993	0.116895425933
4	375346	510.627707217143	0.07396465515
4	375381	510.680522193638	0.052814976495
4	375480	510.830266044073	0.149743850435
4	375487	510.832195062965	0.001929018892
4	375494	510.83876497082	0.006569907855
4	375509	510.868011547319	0.029246576499
4	375518	510.871730917222	0.003719369903
4	375531	510.885339572497	0.013608655275
4	375538	510.891357542006	0.006017969509
4	375565	510.909323516301	0.017965974295
4	375576	510.914933468345	0.005609952044
4	375597	510.932160465594	0.017226997249
4	375606	510.935653601026	0.003493135432
4	375639	511.038220734535	0.102567133509
4	375646	511.042170444827	0.003949710292
4	375677	511.056350649408	0.014180204581
4	375720	511.101591117804	0.045240468396
4	375799	511.229920153452	0.128329035648
4	375802	511.230957099073	0.001036945621
4	375805	511.231228876782	0.000271777709
4	375852	511.280334648996	0.049105772214
4	375871	511.289103425347	0.008768776351
4	375890	511.301796019297	0.01269259395
4	375909	511.309667658587	0.00787163929
4	375920	511.339346801362	0.029679142775
4	375923	511.339619748905	0.000272947543
4	375926	511.339995146405	0.0003753975
4	375933	511.341056334206	0.001061187801
4	375936	511.341180271407	0.000123937201
4	375939	511.342393055919	0.001212784512
4	375958	511.373932720827	0.031539664908
4	375997	511.434029358657	0.06009663783
4	376000	511.434349516372	0.000320157715
4	376007	511.45242065823	0.018071141858
4	376010	511.452443061522	2.2403292e-05
4	376013	511.452564364764	0.000121303242
4	376016	511.452998666525	0.000434301761
4	376023	511.472208583039	0.019209916514
4	376026	511.472839849707	0.000631266668
4	376033	511.483199596283	0.010359746576
4	376036	511.483569418957	0.000369822674
4	376039	511.483773228921	0.000203809964
4	376082	511.528707661506	0.044934432585
4	376085	511.53099248908	0.002284827574
4	376118	511.560532766163	0.029540277083
4	376133	511.566690240359	0.006157474196
4	376152	511.575771387528	0.009081147169
4	376173	511.585478560457	0.009707172929
4	376180	511.591150720295	0.005672159838
4	376215	511.632847629496	0.041696909201
4	376222	511.634310149445	0.001462519949
4	376257	511.693312395444	0.059002245999
4	376264	511.705029907327	0.011717511883
4	376339	511.828580131959	0.123550224632
4	376358	511.8396408201	0.011060688141
4	376385	511.901060854307	0.061420034207
4	376439	512.020144378449	0.119083524142
4	376450	512.028820220006	0.008675841557
4	376467	512.03909721036	0.010276990354
4	376488	512.048427552312	0.009330341952
4	376491	512.050081743855	0.001654191543
4	376498	512.055350975425	0.00526923157
4	376517	512.068601842356	0.013250866931
4	376528	512.077018297841	0.008416455485
4	376539	512.08143046073	0.004412162889
4	376554	512.090679765367	0.009249304637
4	376585	512.105136639357	0.01445687399
4	376588	512.105918053298	0.000781413941
4	376611	512.123922443925	0.018004390627
4	376614	512.124125006625	0.0002025627
4	376627	512.128532156794	0.004407150169
4	376632	512.130060976352	0.001528819558
4	376639	512.131241383013	0.001180406661
4	376664	512.144475874664	0.013234491651
4	376743	512.187500513845	0.043024639181
4	376780	512.212903663407	0.025403149562
4	376783	512.213348340038	0.000444676631
4	376802	512.223797865888	0.01044952585
4	376809	512.226246567577	0.002448701689
4	376816	512.228597704119	0.002351136542
4	376859	512.29363990376	0.065042199641
4	376878	512.317387555803	0.023747652043
4	376907	512.350820972991	0.033433417188
4	376932	512.3658176549	0.014996681909
4	376939	512.369446908402	0.003629253502
4	376944	512.371616438909	0.002169530507
4	376947	512.372104896071	0.000488457162
4	376964	512.385499693263	0.013394797192
4	377015	512.445302440061	0.059802746798
4	377042	512.521817920851	0.07651548079
4	377061	512.549271443996	0.027453523145
4	377100	512.571214315652	0.021942871656
4	377115	512.594377613945	0.023163298293
4	377132	512.606166665601	0.011789051656
4	377137	512.608517069565	0.002350403964
4	377140	512.608981683493	0.000464613928
4	377145	512.609501805366	0.000520121873
4	377158	512.623891494413	0.014389689047
4	377161	512.624722465189	0.000830970776
4	377200	512.688259540135	0.063537074946
4	377215	512.694299843139	0.006040303004
4	377226	512.714788600861	0.020488757722
4	377261	512.774769532171	0.05998093131
4	377272	512.781573920825	0.006804388654
4	377279	512.783651779046	0.002077858221
4	377314	512.868793953098	0.085142174052
4	377321	512.878520338157	0.009726385059
4	377344	512.937511716284	0.058991378127
4	377374	513.013131783601	0.075620067317
4	377383	513.01702759941	0.003895815809
4	377390	513.017443250231	0.000415650821
4	377399	513.027157464885	0.009714214654
4	377434	513.139708547949	0.112551083064
4	377441	513.143889071423	0.004180523474
4	377452	513.153064827706	0.009175756283
4	377467	513.162699694379	0.009634866673
4	377482	513.179501691744	0.016801997365
4	377509	513.294247775503	0.114746083759
4	377526	513.30282574528	0.008577969777
4	377529	513.302877691295	5.1946015e-05
4	377586	513.406622965973	0.103745274678
4	377601	513.419318830408	0.012695864435
4	377628	513.476493086995	0.057174256587
4	377647	513.511922225306	0.035429138311
4	377666	513.590076493073	0.078154267767
4	377693	513.650539564574	0.060463071501
4	377736	513.72875115416	0.078211589586
4	377743	513.732930303818	0.004179149658
4	377746	513.733755108175	0.000824804357
4	377771	513.82029581804	0.086540709865
4	377774	513.823569613485	0.003273795445
4	377777	513.826173620285	0.0026040068
4	377790	513.832686042118	0.006512421833
4	377797	513.839395752267	0.006709710149
4	377808	513.872631556981	0.033235804714
4	377819	513.882177676339	0.009546119358
4	377822	513.883449045686	0.001271369347
4	377837	513.88886441599	0.005415370304
4	377846	513.890426014788	0.001561598798
4	377871	513.909716359578	0.01929034479
4	377894	513.944813413616	0.035097054038
4	377929	513.99852100616	0.053707592544
4	377959	514.02937439257	0.03085338641
4	377982	514.062330527127	0.032956134557
4	377991	514.068402558516	0.006072031389
4	378000	514.074400790896	0.00599823238
4	378007	514.07664891917	0.002248128274
4	378010	514.076702673431	5.3754261e-05
4	378021	514.103155097456	0.026452424025
4	378032	514.134757977662	0.031602880206
4	378043	514.137846142886	0.003088165224
4	378062	514.154088820715	0.016242677829
4	378089	514.197936011607	0.043847190892
4	378092	514.199609725274	0.001673713667
4	378111	514.208874902051	0.009265176777
4	378126	514.218186783004	0.009311880953
4	378153	514.281214056534	0.06302727353
4	378180	514.292084724138	0.010870667604
4	378195	514.307914994589	0.015830270451
4	378228	514.346564718544	0.038649723955
4	378269	514.395001663345	0.048436944801
4	378308	514.448525338139	0.053523674794
4	378347	514.502517759422	0.053992421283
4	378354	514.512767176122	0.0102494167
4	378363	514.539867985032	0.02710080891
4	378380	514.581166149477	0.041298164445
4	378403	514.627338837837	0.04617268836
4	378426	514.652319464049	0.024980626212
4	378449	514.699676241563	0.047356777514
4	378468	514.719374328323	0.01969808676
4	378483	514.739835170977	0.020460842654
4	378490	514.761283581119	0.021448410142
4	378517	514.80507245172	0.043788870601
4	378520	514.80522545313	0.00015300141
4	378539	514.813401362901	0.008175909771
4	378546	514.813865597576	0.000464234675
4	378549	514.814499643797	0.000634046221
4	378572	514.866907053523	0.052407409726
4	378639	515.02977957979	0.162872526267
4	378686	515.107060850773	0.077281270983
4	378705	515.118590986303	0.01153013553
4	378808	515.274125429164	0.155534442861
4	378827	515.307662454546	0.033537025382
4	378834	515.31888270841	0.011220253864
4	378841	515.319604251443	0.000721543033
4	378844	515.31972867349	0.000124422047
4	378853	515.322676854696	0.002948181206
4	378858	515.3290327045	0.006355849804
4	378861	515.330032708309	0.001000003809
4	378876	515.337515761198	0.007483052889
4	378879	515.341976652699	0.004460891501
4	378882	515.343055015531	0.001078362832
4	378901	515.381181689004	0.038126673473
4	378916	515.393241886743	0.012060197739
4	378923	515.409085567705	0.015843680962
4	378932	515.414047680604	0.004962112899
4	378935	515.414077272035	2.9591431e-05
4	378966	515.486840024842	0.072762752807
4	378973	515.488364044798	0.001524019956
4	378976	515.488655943684	0.000291898886
4	379001	515.506859722582	0.018203778898
4	379008	515.512902307743	0.006042585161
4	379015	515.517165449093	0.00426314135
4	379022	515.534973552339	0.017808103246
4	379033	515.555476657286	0.020503104947
4	379052	515.580457264122	0.024980606836
4	379115	515.639897135306	0.059439871184
4	379132	515.651428368496	0.01153123319
4	379135	515.652144671065	0.000716302569
4	379138	515.652908977307	0.000764306242
4	379155	515.656126620851	0.003217643544
4	379158	515.65713287805	0.001006257199
4	379181	515.678137285118	0.021004407068
4	379194	515.687546333762	0.009409048644
4	379219	515.709393596175	0.021847262413
4	379252	515.72912516716	0.019731570985
4	379265	515.742755951893	0.013630784733
4	379320	515.775973854852	0.033217902959
4	379323	515.776980674962	0.00100682011
4	379362	515.845589296076	0.068608621114
4	379365	515.846040867794	0.000451571718
4	379428	515.928652810877	0.082611943083
4	379494	516.034803692842	0.106150881965
4	379525	516.092691540316	0.057887847474
4	379552	516.113852311353	0.021160771037
4	379567	516.152203482598	0.038351171245
4	379574	516.155740975381	0.003537492783
4	379589	516.165155855896	0.009414880515
4	379600	516.170478140394	0.005322284498
4	379607	516.184108204184	0.01363006379
4	379616	516.192572513144	0.00846430896
4	379619	516.193509868859	0.000937355715
4	379642	516.210253774521	0.016743905662
4	379645	516.211199925082	0.000946150561
4	379694	516.247621778383	0.036421853301
4	379701	516.265781724377	0.018159945994
4	379708	516.278379945649	0.012598221272
4	379715	516.281568777907	0.003188832258
4	379722	516.284167706346	0.002598928439
4	379725	516.285802838157	0.001635131811
4	379746	516.342493451646	0.056690613489
4	379751	516.347313861176	0.00482040953
4	379794	516.379583054277	0.032269193101
4	379829	516.421050889123	0.041467834846
4	379860	516.464387166908	0.043336277785
4	379951	516.574629757913	0.110242591005
4	379974	516.592863009641	0.018233251728
4	379977	516.593192030298	0.000329020657
4	379984	516.59646025703	0.003268226732
4	379991	516.609257793843	0.012797536813
4	380000	516.6146590844	0.005401290557
4	380019	516.636883302523	0.022224218123
4	380022	516.637916211482	0.001032908959
4	380039	516.700809815392	0.06289360391
4	380066	516.72906952535	0.028259709958
4	380091	516.762615818083	0.033546292733
4	380112	516.769557627493	0.00694180941
4	380115	516.770251904664	0.000694277171
4	380118	516.773044689524	0.00279278486
4	380129	516.775500946993	0.002456257469
4	380150	516.790575412341	0.015074465348
4	380159	516.797550781376	0.006975369035
4	380162	516.798719220661	0.001168439285
4	380169	516.799095467217	0.000376246556
4	380176	516.803728402119	0.004632934902
4	380179	516.804723267447	0.000994865328
4	380184	516.805981170392	0.001257902945
4	380189	516.811145253923	0.005164083531
4	380232	516.867988605668	0.056843351745
4	380263	516.917190401545	0.049201795877
4	380266	516.917645533349	0.000455131804
4	380289	516.93865467461	0.021009141261
4	380292	516.938970026305	0.000315351695
4	380315	516.952840968508	0.013870942203
4	380330	516.985101026159	0.032260057651
4	380384	517.078877466576	0.093776440417
4	380393	517.080410454466	0.00153298789
4	380426	517.104677702366	0.0242672479
4	380449	517.123383422951	0.018705720585
4	380464	517.148688300424	0.025304877473
4	380483	517.171329925679	0.022641625255
4	380506	517.225351038146	0.054021112467
4	380521	517.246096109301	0.020745071155
4	380528	517.261425028713	0.015328919412
4	380585	517.303901278805	0.042476250092
4	380596	517.306905546774	0.003004267969
4	380605	517.310855666968	0.003950120194
4	380608	517.311352443257	0.000496776289
4	380675	517.355020099348	0.043667656091
4	380694	517.360311930751	0.005291831403
4	380713	517.372563784565	0.012251853814
4	380716	517.372570377424	6.592859e-06
4	380725	517.380215426648	0.007645049224
4	380730	517.38159939855	0.001383971902
4	380749	517.398462602896	0.016863204346
4	380776	517.458498564774	0.060035961878
4	380785	517.465093288531	0.006594723757
4	380830	517.538426156856	0.073332868325
4	380873	517.628735642168	0.090309485312
4	380888	517.657490636176	0.028754994008
4	380915	517.681981198944	0.024490562768
4	380934	517.702166298366	0.020185099422
4	380969	517.783497078459	0.081330780093
4	380972	517.783847658388	0.000350579929
4	380975	517.784833224411	0.000985566023
4	380982	517.785570939207	0.000737714796
4	380993	517.789329815387	0.00375887618
4	381071	518.000054335504	0.210724520117
4	381090	518.070142916006	0.070088580502
4	381101	518.134105610674	0.063962694668
4	381116	518.147596420733	0.013490810059
4	381135	518.260006192215	0.112409771482
4	381142	518.274892691803	0.014886499588
4	381149	518.277466925557	0.002574233754
4	381164	518.285944459095	0.008477533538
4	381171	518.289202336937	0.003257877842
4	381214	518.367996307326	0.078793970389
4	381241	518.498987578415	0.130991271089
4	381256	518.5395848179	0.040597239485
4	381267	518.57853434114	0.03894952324
4	381274	518.581219559247	0.002685218107
4	381277	518.582370702177	0.00115114293
4	381282	518.585727357313	0.003356655136
4	381293	518.588238472113	0.0025111148
4	381300	518.592685956308	0.004447484195
4	381329	518.606514614234	0.013828657926
4	381336	518.608876431327	0.002361817093
4	381359	518.657994211641	0.049117780314
4	381366	518.663742405311	0.00574819367
4	381465	518.922091744204	0.258349338893
4	381472	518.923633837646	0.001542093442
4	381483	518.954751155902	0.031117318256
4	381486	518.954800691986	4.9536084e-05
4	381497	518.964951966931	0.010151274945
4	381504	518.974374415877	0.009422448946
4	381514	519.008313357851	0.033938941974
4	381517	519.00896920524	0.000655847389
4	381528	519.013143476366	0.004174271126
4	381541	519.017232617593	0.004089141227
4	381566	519.043140535566	0.025907917973
4	381569	519.043647948051	0.000507412485
4	381618	519.080326033891	0.03667808584
4	381635	519.099490744826	0.019164710935
4	381642	519.102590780659	0.003100035833
4	381665	519.12974024538	0.027149464721
4	381676	519.14455965703	0.01481941165
4	381707	519.216765062787	0.072205405757
4	381774	519.286633544241	0.069868481454
4	381785	519.29303923216	0.006405687919
4	381788	519.294655287957	0.001616055797
4	381823	519.317546697428	0.022891409471
4	381834	519.324659386912	0.007112689484
4	381873	519.351242310187	0.026582923275
4	381886	519.356748294402	0.005505984215
4	381889	519.358577144782	0.00182885038
4	381898	519.363491741212	0.00491459643
4	381905	519.365742301169	0.002250559957
4	381916	519.380425882249	0.01468358108
4	381923	519.405963931713	0.025538049464
4	381938	519.412189768635	0.006225836922
4	381945	519.41863440055	0.006444631915
4	381968	519.455370775249	0.036736374699
4	381971	519.456483287434	0.001112512185
4	381982	519.478824223976	0.022340936542
4	381985	519.479163413006	0.00033918903
4	381988	519.480863051718	0.001699638712
4	381999	519.540524113481	0.059661061763
4	382010	519.546256438975	0.005732325494
4	382013	519.547361590603	0.001105151628
4	382032	519.552070356076	0.004708765473
4	382035	519.552144501675	7.4145599e-05
4	382038	519.552955842613	0.000811340938
4	382041	519.553917050604	0.000961207991
4	382044	519.554186255014	0.00026920441
4	382085	519.590619067302	0.036432812288
4	382094	519.593835890642	0.00321682334
4	382097	519.595371059973	0.001535169331
4	382112	519.605477544511	0.010106484538
4	382143	519.650594452357	0.045116907846
4	382164	519.688481831975	0.037887379618
4	382189	519.76745413505	0.078972303075
4	382224	519.831314098577	0.063859963527
4	382267	519.871035389147	0.03972129057
4	382272	519.873486806125	0.002451416978
4	382283	519.874461867252	0.000975061127
4	382286	519.875246209915	0.000784342663
4	382307	519.899445258949	0.024199049034
4	382314	519.90204980112	0.002604542171
4	382321	519.905645998656	0.003596197536
4	382360	520.066708997899	0.161062999243
4	382367	520.073061359339	0.00635236144
4	382382	520.104734138365	0.031672779026
4	382389	520.107580799866	0.002846661501
4	382404	520.120280284202	0.012699484336
4	382411	520.12160909226	0.001328808058
4	382458	520.2240393458	0.10243025354
4	382461	520.224316708853	0.000277363053
4	382484	520.244250079858	0.019933371005
4	382555	520.336385577064	0.092135497206
4	382566	520.38649592857	0.050110351506
4	382569	520.386544308663	4.8380093e-05
4	382588	520.459270879222	0.072726570559
4	382591	520.459545256873	0.000274377651
4	382644	520.573347298171	0.113802041298
4	382673	520.60263567791	0.029288379739
4	382708	520.650860903351	0.048225225441
4	382731	520.659241073781	0.00838017043
4	382754	520.718770579967	0.059529506186
4	382793	520.744664801442	0.025894221475
4	382850	520.8270505244	0.082385722958
4	382905	520.914831051137	0.087780526737
4	382908	520.915016578718	0.000185527581
4	382917	520.922120780042	0.007104201324
4	382924	520.924726069844	0.002605289802
4	382997	521.013069542856	0.088343473012
4	383012	521.031970900706	0.01890135785
4	383021	521.036482738793	0.004511838087
4	383030	521.039478240136	0.002995501343
4	383049	521.04362450407	0.004146263934
4	383072	521.099189306495	0.055564802425
4	383087	521.108271068546	0.009081762051
4	383116	521.142550422428	0.034279353882
4	383121	521.146694262481	0.004143840053
4	383124	521.149625161541	0.00293089906
4	383207	521.27356522014	0.123940058599
4	383272	521.330245088911	0.056679868771
4	383281	521.331878534153	0.001633445242
4	383298	521.336424592431	0.004546058278
4	383301	521.337723367864	0.001298775433
4	383324	521.352726167223	0.015002799359
4	383349	521.366479614211	0.013753446988
4	383352	521.366805937992	0.000326323781
4	383359	521.377080764161	0.010274826169
4	383378	521.397327169961	0.0202464058
4	383453	521.514159018264	0.116831848303
4	383488	521.587236207532	0.073077189268
4	383491	521.587264989589	2.8782057e-05
4	383494	521.587391925114	0.000126935525
4	383509	521.643714553185	0.056322628071
4	383538	521.692957057305	0.04924250412
4	383563	521.736984127012	0.044027069707
4	383574	521.756191307021	0.019207180009
4	383601	521.796993480616	0.040802173595
4	383644	521.849629830033	0.052636349417
4	383647	521.849694724311	6.4894278e-05
4	383666	521.94588765038	0.096192926069
4	383681	521.971512729337	0.025625078957
4	383703	522.009520196014	0.038007466677
4	383714	522.029827069361	0.020306873347
4	383721	522.031913955834	0.002086886473
4	383756	522.066088431038	0.034174475204
4	383785	522.083085366758	0.01699693572
4	383790	522.0848513998	0.001766033042
4	383833	522.108228691718	0.023377291918
4	383864	522.152922965201	0.044694273483
4	383867	522.154552081766	0.001629116565
4	383878	522.174480716503	0.019928634737
4	383881	522.175660495641	0.001179779138
4	383892	522.221346861352	0.045686365711
4	383911	522.259385247671	0.038038386319
4	383926	522.275642295909	0.016257048238
4	383935	522.277847090517	0.002204794608
4	383964	522.315954186639	0.038107096122
4	383975	522.327598246539	0.0116440599
4	383982	522.327916008532	0.000317761993
4	384073	522.52589944576	0.197983437228
4	384088	522.550121383957	0.024221938197
4	384091	522.550370552607	0.00024916865
4	384118	522.574611468093	0.024240915486
4	384125	522.577768578123	0.00315711003
4	384128	522.577824730907	5.6152784e-05
4	384131	522.578054946983	0.000230216076
4	384188	522.669815216633	0.09176026965
4	384201	522.680917150148	0.011101933515
4	384212	522.684000601774	0.003083451626
4	384215	522.68409181173	9.1209956e-05
4	384254	522.795810503692	0.111718691962
4	384261	522.801498017303	0.005687513611
4	384314	522.896195211916	0.094697194613
4	384335	522.923399714892	0.027204502976
4	384360	522.943137897169	0.019738182277
4	384367	522.946045890299	0.00290799313
4	384372	522.946130995264	8.5104965e-05
4	384375	522.946781316209	0.000650320945
4	384378	522.948227286209	0.00144597
4	384401	522.986335644572	0.038108358363
4	384431	523.016041149804	0.029705505232
4	384442	523.041848809506	0.025807659702
4	384445	523.042784564684	0.000935755178
4	384456	523.047525523223	0.004740958539
4	384459	523.048991685801	0.001466162578
4	384478	523.070846541761	0.02185485596
4	384573	523.214677435809	0.143830894048
4	384602	523.240138336555	0.025460900746
4	384605	523.241218707856	0.001080371301
4	384710	523.332784292224	0.091565584368
4	384717	523.334342500724	0.0015582085
4	384724	523.35821357101	0.023871070286
4	384755	523.392965481113	0.034751910103
4	384762	523.397827741362	0.004862260249
4	384781	523.41631085169	0.018483110328
4	384804	523.452490396375	0.036179544685
4	384807	523.452836941424	0.000346545049
4	384842	523.493460917709	0.040623976285
4	384849	523.499642869886	0.006181952177
4	384864	523.509247329328	0.009604459442
4	384883	523.521435618856	0.012188289528
4	384956	523.613314445884	0.091878827028
4	384973	523.621674214106	0.008359768222
4	384976	523.623388211941	0.001713997835
4	385003	523.652591473915	0.029203261974
4	385042	523.698093793919	0.045502320004
4	385047	523.700790370569	0.00269657665
4	385058	523.710303316952	0.009512946383
4	385065	523.711826136854	0.001522819902
4	385068	523.712269691433	0.000443554579
4	385113	523.825315579309	0.113045887876
4	385124	523.849747883937	0.024432304628
4	385139	523.869177897709	0.019430013772
4	385162	523.901252784118	0.032074886409
4	385214	524.036160762693	0.134907978575
4	385217	524.037511668074	0.001350905381
4	385222	524.038911982834	0.00140031476
4	385237	524.044153983696	0.005242000862
4	385244	524.049305133443	0.005151149747
4	385255	524.057624373855	0.008319240412
4	385266	524.063032419135	0.00540804528
4	385277	524.067518793574	0.004486374439
4	385324	524.108092754109	0.040573960535
4	385335	524.114976875589	0.00688412148
4	385346	524.125613677789	0.0106368022
4	385395	524.185817021667	0.060203343878
4	385400	524.186704776436	0.000887754769
4	385431	524.229803474213	0.043098697777
4	385434	524.231691728235	0.001888254022
4	385445	524.264683453631	0.032991725396
4	385460	524.277709597067	0.013026143436
4	385483	524.338603393799	0.060893796732
4	385498	524.346551612174	0.007948218375
4	385529	524.422803456354	0.07625184418
4	385592	524.601054064982	0.178250608628
4	385631	524.671431214775	0.070377149793
4	385650	524.685041385474	0.013610170699
4	385693	524.762991739835	0.077950354361
4	385696	524.765593650915	0.00260191108
4	385699	524.766326552255	0.00073290134
4	385706	524.792868876722	0.026542324467
4	385715	524.803108191878	0.010239315156
4	385736	524.818718053178	0.0156098613
4	385749	524.828725534239	0.010007481061
4	385760	524.83177427236	0.003048738121
4	385763	524.83178220792	7.93556e-06
4	385788	524.876974080408	0.045191872488
4	385821	524.933326770996	0.056352690588
4	385842	524.97181690434	0.038490133344
4	385897	525.036403411741	0.064586507401
4	385912	525.055616756105	0.019213344364
4	385925	525.059159540533	0.003542784428
4	385948	525.10523229769	0.046072757157
4	385951	525.10606759142	0.00083529373
4	385972	525.119009547833	0.012941956413
4	385987	525.140647518171	0.021637970338
4	385990	525.141195458822	0.000547940651
4	386053	525.316516085625	0.175320626803
4	386094	525.428634184796	0.112118099171
4	386097	525.430295799064	0.001661614268
4	386118	525.456241895913	0.025946096849
4	386121	525.456258567599	1.6671686e-05
4	386130	525.458379577422	0.002121009823
4	386163	525.496688663857	0.038309086435
4	386166	525.497002984247	0.00031432039
4	386175	525.498606435591	0.001603451344
4	386180	525.50081147117	0.002205035579
4	386187	525.504531316311	0.003719845141
4	386196	525.507455814323	0.002924498012
4	386249	525.547031572615	0.039575758292
4	386280	525.558349338317	0.011317765702
4	386283	525.559213127025	0.000863788708
4	386292	525.563312014127	0.004098887102
4	386313	525.625302075595	0.061990061468
4	386332	525.636350410233	0.011048334638
4	386347	525.67665776312	0.040307352887
4	386350	525.678387042688	0.001729279568
4	386365	525.702594488275	0.024207445587
4	386376	525.707866927036	0.005272438761
4	386383	525.710621817306	0.00275489027
4	386386	525.711413819984	0.000792002678
4	386401	525.74774512793	0.036331307946
4	386404	525.750374197418	0.002629069488
4	386431	525.775193429739	0.024819232321
4	386434	525.775314611698	0.000121181959
4	386457	525.811389781559	0.036075169861
4	386460	525.811566233502	0.000176451943
4	386475	525.882416789368	0.070850555866
4	386498	525.923576017477	0.041159228109
4	386501	525.924873011668	0.001296994191
4	386508	525.933312202153	0.008439190485
4	386515	525.938404204437	0.005092002284
4	386530	525.943554324865	0.005150120428
4	386533	525.94374292626	0.000188601395
4	386560	525.976453930945	0.032711004685
4	386598	526.040762697641	0.064308766696
4	386613	526.045420852453	0.004658154812
4	386636	526.107950986305	0.062530133852
4	386643	526.110060887785	0.00210990148
4	386690	526.158512507474	0.048451619689
4	386693	526.159042883524	0.00053037605
4	386700	526.168033032111	0.008990148587
4	386707	526.168964332364	0.000931300253
4	386722	526.185113596101	0.016149263737
4	386729	526.19334197045	0.008228374349
4	386732	526.193467718029	0.000125747579
4	386799	526.296300121887	0.102832403858
4	386814	526.306694401002	0.010394279115
4	386817	526.306917529323	0.000223128321
4	386828	526.315573112986	0.008655583663
4	386833	526.316304861794	0.000731748808
4	386846	526.321155482206	0.004850620412
4	386861	526.329422161397	0.008266679191
4	386868	526.335121725231	0.005699563834
4	386885	526.343387605654	0.008265880423
4	386888	526.344044245687	0.000656640033
4	386921	526.392270703412	0.048226457725
4	386936	526.433620914576	0.041350211164
4	386951	526.444899998164	0.011279083588
4	386954	526.445241212875	0.000341214711
4	386961	526.452601546428	0.007360333553
4	386984	526.544590166786	0.091988620358
4	387007	526.561229376362	0.016639209576
4	387012	526.561759827207	0.000530450845
4	387017	526.562419883915	0.000660056708
4	387022	526.562791514115	0.0003716302
4	387047	526.584963333666	0.022171819551
4	387056	526.58848420091	0.003520867244
4	387113	526.717508520968	0.129024320058
4	387122	526.719670309397	0.002161788429
4	387127	526.720649577558	0.000979268161
4	387146	526.730411718772	0.009762141214
4	387173	526.754351877804	0.023940159032
4	387188	526.76028039534	0.005928517536
4	387195	526.763089055351	0.002808660011
4	387250	526.832905467517	0.069816412166
4	387341	526.951998842924	0.119093375407
4	387348	526.953867576968	0.001868734044
4	387428	527.095157970233	0.141290393265
4	387445	527.114349090343	0.01919112011
4	387456	527.129001597778	0.014652507435
4	387479	527.156754382479	0.027752784701
4	387528	527.185271593633	0.028517211154
4	387557	527.272450294962	0.087178701329
4	387568	527.311200055078	0.038749760116
4	387571	527.311701669168	0.00050161409
4	387578	527.322645863652	0.010944194484
4	387643	527.431093642372	0.10844777872
4	387648	527.433456135544	0.002362493172
4	387659	527.440760033473	0.007303897929
4	387694	527.487536486474	0.046776453001
4	387697	527.487744243528	0.000207757054
4	387742	527.556038830637	0.068294587109
4	387745	527.556792894732	0.000754064095
4	387770	527.571195915825	0.014403021093
4	387809	527.680492770191	0.109296854366
4	387820	527.688089928668	0.007597158477
4	387827	527.689574078872	0.001484150204
4	387830	527.690183182712	0.00060910384
4	387849	527.755556515292	0.06537333258
4	387864	527.77269316043	0.017136645138
4	387867	527.773660390624	0.000967230194
4	387878	527.778459103673	0.004798713049
4	387901	527.8105760387	0.032116935027
4	387932	527.83457947451	0.02400343581
4	387937	527.836122735673	0.001543261163
4	387942	527.840174886916	0.004052151243
4	388001	527.924534128935	0.084359242019
4	388024	527.976106896758	0.051572767823
4	388042	528.000271071963	0.024164175205
4	388073	528.031128015701	0.030856943738
4	388092	528.067778095132	0.036650079431
4	388191	528.179645300217	0.111867205085
4	388194	528.18007386162	0.000428561403
4	388197	528.180684838556	0.000610976936
4	388204	528.183154483495	0.002469644939
4	388235	528.210213197847	0.027058714352
4	388238	528.210406883701	0.000193685854
4	388265	528.255981491049	0.045574607348
4	388268	528.257756878876	0.001775387827
4	388283	528.28195166214	0.024194783264
4	388306	528.311308455558	0.029356793418
4	388313	528.31323538808	0.001926932522
4	388332	528.368360825682	0.055125437602
4	388339	528.371982849161	0.003622023479
4	388352	528.375327619327	0.003344770166
4	388377	528.404312797578	0.028985178251
4	388380	528.406056513109	0.001743715531
4	388415	528.492545579097	0.086489065988
4	388436	528.523835291276	0.031289712179
4	388503	528.593618467478	0.069783176202
4	388506	528.593687453931	6.8986453e-05
4	388519	528.601737353266	0.008049899335
4	388590	528.774985909698	0.173248556432
4	388609	528.789737433879	0.014751524181
4	388628	528.818432282165	0.028694848286
4	388645	528.856516925358	0.038084643193
4	388682	528.916776157377	0.060259232019
4	388701	528.932831687721	0.016055530344
4	388704	528.932863910602	3.2222881e-05
4	388738	529.032977657641	0.100113747039
4	388757	529.042494915358	0.009517257717
4	388768	529.050907354733	0.008412439375
4	388771	529.051240233431	0.000332878698
4	388790	529.06397849193	0.012738258499
4	388813	529.100020970201	0.036042478271
4	388826	529.104600391029	0.004579420828
4	388915	529.22519641741	0.120596026381
4	388962	529.266666253174	0.041469835764
4	389033	529.433791880973	0.167125627799
4	389044	529.451918001164	0.018126120191
4	389047	529.452056556653	0.000138555489
4	389050	529.453792448046	0.001735891393
4	389073	529.469279600518	0.015487152472
4	389090	529.485267661608	0.01598806109
4	389099	529.490520412234	0.005252750626
4	389110	529.503020501183	0.012500088949
4	389125	529.609023379758	0.106002878575
4	389136	529.638670365069	0.029646985311
4	389139	529.639981967715	0.001311602646
4	389142	529.640590433334	0.000608465619
4	389149	529.64399353232	0.003403098986
4	389164	529.663554591457	0.019561059137
4	389191	529.69410555221	0.030550960753
4	389194	529.695298542766	0.001192990556
4	389197	529.695514761107	0.000216218341
4	389216	529.721748533785	0.026233772678
4	389219	529.722571344452	0.000822810667
4	389270	529.753088916576	0.030517572124
4	389293	529.767685101048	0.014596184472
4	389308	529.774360097494	0.006674996446
4	389379	529.91150702643	0.137146928936
4	389398	529.92413563852	0.01262861209
4	389405	529.927711988494	0.003576349974
4	389416	529.941744661864	0.01403267337
4	389427	529.94924739727	0.007502735406
4	389434	529.964478640302	0.015231243032
4	389437	529.965118534104	0.000639893802
4	389444	529.972968659077	0.007850124973
4	389477	530.007857395653	0.034888736576
4	389494	530.036828887754	0.028971492101
4	389497	530.037036410475	0.000207522721
4	389508	530.060405716693	0.023369306218
4	389515	530.067056962764	0.006651246071
4	389522	530.072278571194	0.00522160843
4	389529	530.078802266398	0.006523695204
4	389560	530.111281142544	0.032478876146
4	389563	530.112570033445	0.001288890901
4	389570	530.115627781791	0.003057748346
4	389601	530.154637784195	0.039010002404
4	389624	530.194928539728	0.040290755533
4	389655	530.240731516727	0.045802976999
4	389666	530.242889384465	0.002157867738
4	389717	530.30124335874	0.058353974275
4	389740	530.343310055619	0.042066696879
4	389751	530.353601986165	0.010291930546
4	389766	530.372384632751	0.018782646586
4	389777	530.387351505174	0.014966872423
4	389820	530.479954823683	0.092603318509
4	389831	530.484591811692	0.004636988009
4	389842	530.493128623356	0.008536811664
4	389877	530.539347231595	0.046218608239
4	389892	530.586194842358	0.046847610763
4	389935	530.617194900266	0.031000057908
4	389938	530.617269398166	7.44979e-05
4	389945	530.630236037805	0.012966639639
4	389948	530.630430040717	0.000194002912
4	389987	530.677871352893	0.047441312176
4	389990	530.678180712104	0.000309359211
4	390009	530.704493362138	0.026312650034
4	390038	530.727643730132	0.023150367994
4	390063	530.764188606688	0.036544876556
4	390070	530.766576908247	0.002388301559
4	390107	530.833385816408	0.066808908161
4	390132	530.864903627564	0.031517811156
4	390135	530.865441064358	0.000537436794
4	390146	530.891919493195	0.026478428837
4	390157	530.902410554977	0.010491061782
4	390168	530.910478718486	0.008068163509
4	390195	530.973616664537	0.063137946051
4	390210	530.988809697051	0.015193032514
4	390217	530.990995543447	0.002185846396
4	390246	531.044601823585	0.053606280138
4	390249	531.045172405507	0.000570581922
4	390280	531.120008979141	0.074836573634
4	390303	531.143569254706	0.023560275565
4	390306	531.143660931233	9.1676527e-05
4	390313	531.147617910356	0.003956979123
4	390340	531.190017142705	0.042399232349
4	390343	531.191217265752	0.001200123047
4	390358	531.210919630501	0.019702364749
4	390361	531.21097402844	5.4397939e-05
4	390378	531.225028050852	0.014054022412
4	390413	531.287286935255	0.062258884403
4	390438	531.325158862303	0.037871927048
4	390441	531.325731281379	0.000572419076
4	390444	531.326038470414	0.000307189035
4	390459	531.345067164763	0.019028694349
4	390462	531.345094749248	2.7584485e-05
4	390477	531.390174819882	0.045080070634
4	390496	531.426972938982	0.0367981191
4	390503	531.429769577093	0.002796638111
4	390522	531.456425244373	0.02665566728
4	390525	531.456570922268	0.000145677895
4	390564	531.515224662239	0.058653739971
4	390587	531.567581856414	0.052357194175
4	390598	531.584675920259	0.017094063845
4	390633	531.613676393909	0.02900047365
4	390640	531.621869655689	0.00819326178
4	390661	531.653507457221	0.031637801532
4	390678	531.659578134197	0.006070676976
4	390697	531.66717011335	0.007591979153
4	390700	531.667282368994	0.000112255644
4	390713	531.673581365467	0.006298996473
4	390732	531.684323674004	0.010742308537
4	390745	531.69344709587	0.009123421866
4	390794	531.784982678152	0.091535582282
4	390835	531.831525175963	0.046542497811
4	390872	531.873542666122	0.042017490159
4	390875	531.874089934134	0.000547268012
4	390916	531.901218692646	0.027128758512
4	390931	531.911060494176	0.00984180153
4	390954	531.974319828941	0.063259334765
4	390957	531.975711694845	0.001391865904
4	390975	532.033131900769	0.057420205924
4	391010	532.109973824546	0.076841923777
4	391041	532.159968461774	0.049994637228
4	391050	532.166411470308	0.006443008534
4	391063	532.226791689827	0.060380219519
4	391098	532.246653885039	0.019862195212
4	391105	532.249552798857	0.002898913818
4	391108	532.251670804563	0.002118005706
4	391115	532.254963229953	0.00329242539
4	391132	532.341232045603	0.08626881565
4	391141	532.356456617285	0.015224571682
4	391156	532.361229888001	0.004773270716
4	391169	532.366814875	0.005584986999
4	391194	532.384360592039	0.017545717039
4	391229	532.430155919866	0.045795327827
4	391244	532.459625429913	0.029469510047
4	391259	532.495655254222	0.036029824309
4	391274	532.554242690463	0.058587436241
4	391309	532.590908332154	0.036665641691
4	391320	532.597287738989	0.006379406835
4	391339	532.614419923088	0.017132184099
4	391358	532.629443280243	0.015023357155
4	391383	532.647721020052	0.018277739809
4	391388	532.653583162321	0.005862142269
4	391429	532.702990569868	0.049407407547
4	391434	532.705395568077	0.002404998209
4	391445	532.710858254142	0.005462686065
4	391452	532.713821794116	0.002963539974
4	391471	532.721054238271	0.007232444155
4	391474	532.722140186936	0.001085948665
4	391477	532.722715474633	0.000575287697
4	391482	532.723789269568	0.001073794935
4	391551	532.761224662618	0.03743539305
4	391554	532.762453535244	0.001228872626
4	391557	532.763907622071	0.001454086827
4	391572	532.772599406936	0.008691784865
4	391591	532.794187458882	0.021588051946
4	391614	532.800201410375	0.006013951493
4	391633	532.814630668467	0.014429258092
4	391640	532.817513052565	0.002882384098
4	391663	532.829859904771	0.012346852206
4	391670	532.834429709368	0.004569804597
4	391689	532.862916015386	0.028486306018
4	391692	532.863069055864	0.000153040478
4	391695	532.863145248173	7.6192309e-05
4	391710	532.880046814733	0.01690156656
4	391717	532.881413089894	0.001366275161
4	391756	532.960540330169	0.079127240275
4	391763	532.994311750609	0.03377142044
4	391797	533.026957630511	0.032645879902
4	391816	533.051445232532	0.024487602021
4	391831	533.064365339165	0.012920106633
4	391866	533.090364064515	0.02599872535
4	391889	533.117870102023	0.027506037508
4	391892	533.119479076228	0.001608974205
4	391911	533.16094606245	0.041466986222
4	391922	533.186315003314	0.025368940864
4	391981	533.227027580141	0.040712576827
4	392028	533.270501094325	0.043473514184
4	392051	533.291473596718	0.020972502393
4	392066	533.296346128692	0.004872531974
4	392075	533.307298067212	0.01095193852
4	392080	533.308294908551	0.000996841339
4	392095	533.333204888634	0.024909980083
4	392102	533.335504786579	0.002299897945
4	392111	533.339785613552	0.004280826973
4	392128	533.350717683712	0.01093207016
4	392147	533.382859019802	0.03214133609
4	392162	533.397674808629	0.014815788827
4	392177	533.409192189774	0.011517381145
4	392184	533.410240848493	0.001048658719
4	392211	533.459900193135	0.049659344642
4	392234	533.479892271808	0.019992078673
4	392241	533.487501497708	0.0076092259
4	392252	533.490861127311	0.003359629603
4	392255	533.491214584688	0.000353457377
4	392278	533.528347033536	0.037132448848
4	392281	533.528451675015	0.000104641479
4	392284	533.530051455401	0.001599780386
4	392307	533.605279903768	0.075228448367
4	392314	533.653207678214	0.047927774446
4	392329	533.66967955492	0.016471876706
4	392348	533.7269831428	0.05730358788
4	392359	533.734709034827	0.007725892027
4	392366	533.743886195678	0.009177160851
4	392393	533.818332380659	0.074446184981
4	392438	533.859313941549	0.04098156089
4	392447	533.863465854288	0.004151912739
4	392462	533.871961591387	0.008495737099
4	392481	533.879689346201	0.007727754814
4	392492	533.882674037858	0.002984691657
4	392507	533.960411984387	0.077737946529
4	392549	534.029534533791	0.069122549404
4	392568	534.046041751804	0.016507218013
4	392611	534.131418501853	0.085376750049
4	392614	534.131901147619	0.000482645766
4	392669	534.202570323722	0.070669176103
4	392710	534.248210458278	0.045640134556
4	392719	534.263769054868	0.01555859659
4	392722	534.263813933851	4.4878983e-05
4	392733	534.268354723873	0.004540790022
4	392744	534.273739620787	0.005384896914
4	392759	534.2786047284	0.004865107613
4	392766	534.279749493664	0.001144765264
4	392817	534.317389992619	0.037640498955
4	392828	534.322440923174	0.005050930555
4	392831	534.323529937076	0.001089013902
4	392854	534.416764372051	0.093234434975
4	392875	534.428095040937	0.011330668886
4	392880	534.429508477843	0.001413436906
4	392887	534.43300639444	0.003497916597
4	392906	534.449524687929	0.016518293489
4	392925	534.460546664311	0.011021976382
4	392952	534.474581347378	0.014034683067
4	392983	534.484045279885	0.009463932507
4	392990	534.492078268265	0.00803298838
4	393007	534.510910493956	0.018832225691
4	393042	534.61363926667	0.102728772714
4	393045	534.614378846339	0.000739579669
4	393062	534.623246033382	0.008867187043
4	393067	534.624857899859	0.001611866477
4	393080	534.6294852672	0.004627367341
4	393111	534.653237469828	0.023752202628
4	393114	534.654447710858	0.00121024103
4	393123	534.658966788237	0.004519077379
4	393126	534.660414258535	0.001447470298
4	393175	534.739694645025	0.07928038649
4	393190	534.765155692131	0.025461047106
4	393241	534.842560367984	0.077404675853
4	393276	534.901857485252	0.059297117268
4	393327	534.967293614778	0.065436129526
4	393386	535.058366896044	0.091073281266
4	393401	535.100358368595	0.041991472551
4	393424	535.11191911684	0.011560748245
4	393449	535.133673426825	0.021754309985
4	393458	535.135479224495	0.00180579767
4	393465	535.137758655695	0.0022794312
4	393516	535.21375014017	0.075991484475
4	393523	535.217602450965	0.003852310795
4	393526	535.217937320088	0.000334869123
4	393529	535.220755391821	0.002818071733
4	393540	535.258590700747	0.037835308926
4	393543	535.259062825245	0.000472124498
4	393570	535.274124048558	0.015061223313
4	393573	535.277281245233	0.003157196675
4	393638	535.327646686134	0.050365440901
4	393663	535.355102956956	0.027456270822
4	393706	535.42262640272	0.067523445764
4	393721	535.437240020833	0.014613618113
4	393736	535.453033161368	0.015793140535
4	393755	535.463151251035	0.010118089667
4	393764	535.464564795081	0.001413544046
4	393773	535.473871424979	0.009306629898
4	393780	535.47674655261	0.002875127631
4	393783	535.478252526865	0.001505974255
4	393786	535.479265761933	0.001013235068
4	393859	535.547169784203	0.06790402227
4	393868	535.553415035518	0.006245251315
4	393899	535.641070238147	0.087655202629
4	393916	535.645696522739	0.004626284592
4	393929	535.65431260984	0.008616087101
4	393952	535.67228548433	0.01797287449
4	393955	535.672329774011	4.4289681e-05
4	393966	535.752762921818	0.080433147807
4	393989	535.782452608004	0.029689686186
4	394012	535.799272999826	0.016820391822
4	394015	535.799356062874	8.3063048e-05
4	394018	535.799421646524	6.558365e-05
4	394065	535.853655963363	0.054234316839
4	394108	535.934215582798	0.080559619435
4	394129	535.952208502914	0.017992920116
4	394134	535.952782392183	0.000573889269
4	394176	536.000717163342	0.047934771159
4	394191	536.011721861007	0.011004697665
4	394210	536.047067024326	0.035345163319
4	394225	536.061940003755	0.014872979429
4	394260	536.08447554265	0.022535538895
4	394287	536.134441692124	0.049966149474
4	394318	536.165242366701	0.030800674577
4	394323	536.165647326802	0.000404960101
4	394326	536.166845259717	0.001197932915
4	394343	536.186592011651	0.019746751934
4	394354	536.19517953534	0.008587523689
4	394393	536.304997408611	0.109817873271
4	394406	536.313546490401	0.00854908179
4	394409	536.313752044585	0.000205554184
4	394416	536.317135810586	0.003383766001
4	394421	536.319131017228	0.001995206642
4	394428	536.32503680711	0.005905789882
4	394435	536.329096042193	0.004059235083
4	394444	536.331316276276	0.002220234083
4	394447	536.331496087996	0.00017981172
4	394450	536.332546911725	0.001050823729
4	394459	536.337969946443	0.005423034718
4	394518	536.407987077861	0.070017131418
4	394533	536.415373308653	0.007386230792
4	394560	536.437776070347	0.022402761694
4	394595	536.535306589966	0.097530519619
4	394630	536.600205640259	0.064899050293
4	394657	536.668164084186	0.067958443927
4	394660	536.669677144694	0.001513060508
4	394671	536.676764534981	0.007087390287
4	394674	536.676938061811	0.00017352683
4	394725	536.747605621688	0.070667559877
4	394732	536.750872454754	0.003266833066
4	394735	536.751885872478	0.001013417724
4	394774	536.820226304584	0.068340432106
4	394797	536.840817704595	0.020591400011
4	394802	536.843103645072	0.002285940477
4	394811	536.84794418986	0.004840544788
4	394814	536.848048604046	0.000104414186
4	394837	536.866350974719	0.018302370673
4	394876	536.910882831377	0.044531856658
4	394887	536.917730458165	0.006847626788
4	394894	536.92212618632	0.004395728155
4	394905	536.936150019183	0.014023832863
4	394935	537.002821704531	0.066671685348
4	394968	537.041095816578	0.038274112047
4	394977	537.042408831195	0.001313014617
4	395064	537.168692468476	0.126283637281
4	395115	537.320330076466	0.15163760799
4	395142	537.34119295073	0.020862874264
4	395153	537.345437268624	0.004244317894
4	395176	537.35814675293	0.012709484306
4	395187	537.374173046455	0.016026293525
4	395202	537.393681258126	0.019508211671
4	395221	537.435965034058	0.042283775932
4	395272	537.480124282018	0.04415924796
4	395275	537.480244247017	0.000119964999
4	395286	537.498639848986	0.018395601969
4	395297	537.504129797296	0.00548994831
4	395340	537.551408191953	0.047278394657
4	395347	537.55658665414	0.005178462187
4	395350	537.55701933227	0.00043267813
4	395357	537.563695969555	0.006676637285
4	395370	537.588935729582	0.025239760027
4	395375	537.591028364228	0.002092634646
4	395410	537.668836381618	0.07780801739
4	395477	537.747046258956	0.078209877338
4	395500	537.768560109241	0.021513850285
4	395519	537.782639277506	0.014079168265
4	395562	537.815761389496	0.03312211199
4	395565	537.816783973262	0.001022583766
4	395604	537.854542298249	0.037758324987
4	395627	537.871827405454	0.017285107205
4	395642	537.896867454229	0.025040048775
4	395647	537.898770600214	0.001903145985
4	395676	537.931925335373	0.033154735159
4	395691	537.950562151155	0.018636815782
4	395726	537.98331895986	0.032756808705
4	395737	537.991463204677	0.008144244817
4	395763	538.001996991599	0.010533786922
4	395770	538.009729403793	0.007732412194
4	395773	538.010374882194	0.000645478401
4	395834	538.095058607958	0.084683725764
4	395839	538.097033445342	0.001974837384
4	395866	538.15067953847	0.053646093128
4	395881	538.177571363933	0.026891825463
4	395884	538.178418555759	0.000847191826
4	395911	538.21297438185	0.034555826091
4	395926	538.240030891257	0.027056509407
4	395937	538.245532977145	0.005502085888
4	395944	538.254530547086	0.008997569941
4	395995	538.360634271775	0.106103724689
4	396002	538.361520218385	0.00088594661
4	396025	538.36925774239	0.007737524005
4	396036	538.385958998067	0.016701255677
4	396067	538.414826531693	0.028867533626
4	396078	538.417106285292	0.002279753599
4	396085	538.427478590117	0.010372304825
4	396116	538.485626010836	0.058147420719
4	396203	538.645058448487	0.159432437651
4	396258	538.744427250849	0.099368802362
4	396337	538.970594794942	0.226167544093
4	396371	539.025192902848	0.054598107906
4	396382	539.036060351589	0.010867448741
4	396401	539.078616338034	0.042555986445
4	396404	539.081920266585	0.003303928551
4	396411	539.111546425839	0.029626159254
4	396414	539.111553079324	6.653485e-06
4	396437	539.14110938383	0.029556304506
4	396452	539.218753900483	0.077644516653
4	396515	539.345741063597	0.126987163114
4	396538	539.4122096469	0.066468583303
4	396565	539.501275576947	0.089065930047
4	396596	539.55518120727	0.053905630323
4	396607	539.560740699718	0.005559492448
4	396614	539.5662593457	0.005518645982
4	396641	539.589112792306	0.022853446606
4	396684	539.685384814062	0.096272021756
4	396687	539.685510009865	0.000125195803
4	396700	539.691967824995	0.00645781513
4	396713	539.69980925497	0.007841429975
4	396718	539.700884795971	0.001075541001
4	396721	539.702990002555	0.002105206584
4	396728	539.705822961433	0.002832958878
4	396739	539.709099763599	0.003276802166
4	396744	539.712314895469	0.00321513187
4	396747	539.712499858945	0.000184963476
4	396758	539.746943088424	0.034443229479
4	396775	539.759457258726	0.012514170302
4	396794	539.796658323893	0.037201065167
4	396797	539.796696511449	3.8187556e-05
4	396830	539.809757191159	0.01306067971
4	396855	539.842208405398	0.032451214239
4	396884	539.850283448509	0.008075043111
4	396907	539.888195122927	0.037911674418
4	396910	539.892235180768	0.004040057841
4	396925	539.900125410571	0.007890229803
4	396952	539.933001731075	0.032876320504
4	396959	539.941098165206	0.008096434131
4	396966	539.948965202522	0.007867037316
4	396989	539.974222456717	0.025257254195
4	396996	539.977885092531	0.003662635814
4	396999	539.9789387523	0.001053659769
4	397022	540.006443746488	0.027504994188
4	397025	540.00733911643	0.000895369942
4	397028	540.008568156533	0.001229040103
4	397031	540.009974305772	0.001406149239
4	397070	540.07701078815	0.067036482378
4	397101	540.117768836128	0.040758047978
4	397104	540.120528725771	0.002759889643
4	397155	540.177303289396	0.056774563625
4	397166	540.179803845355	0.002500555959
4	397201	540.241227810214	0.061423964859
4	397204	540.24239843666	0.001170626446
4	397213	540.255024860163	0.012626423503
4	397222	540.274308504593	0.01928364443
4	397245	540.291795738523	0.01748723393
4	397280	540.30031206366	0.008516325137
4	397285	540.30115839846	0.0008463348
4	397290	540.301923853338	0.000765454878
4	397301	540.317557778838	0.0156339255
4	397348	540.388717447708	0.07115966887
4	397371	540.41097687807	0.022259430362
4	397382	540.416552084437	0.005575206367
4	397399	540.421075785652	0.004523701215
4	397402	540.422050840573	0.000975054921
4	397431	540.437807469545	0.015756628972
4	397446	540.44917502256	0.011367553015
4	397457	540.457283753099	0.008108730539
4	397464	540.461727241072	0.004443487973
4	397479	540.495583186918	0.033855945846
4	397482	540.496204471154	0.000621284236
4	397513	540.542074333227	0.045869862073
4	397520	540.548648455261	0.006574122034
4	397527	540.573103316409	0.024454861148
4	397530	540.573426900044	0.000323583635
4	397595	540.744522981082	0.171096081038
4	397598	540.745324968506	0.000801987424
4	397601	540.745870868122	0.000545899616
4	397634	540.79894604064	0.053075172518
4	397665	540.838795855804	0.039849815164
4	397696	540.865159859903	0.026364004099
4	397711	540.879969855155	0.014809995252
4	397714	540.880416643745	0.00044678859
4	397721	540.882762527367	0.002345883622
4	397724	540.883310806498	0.000548279131
4	397845	541.105098697451	0.221787890953
4	397848	541.106072189274	0.000973491823
4	397859	541.11352798906	0.007455799786
4	397866	541.119936426761	0.006408437701
4	397869	541.12148036654	0.001543939779
4	397884	541.151597738807	0.030117372267
4	397909	541.179566257567	0.02796851876
4	397934	541.251916660336	0.072350402769
4	397949	541.256322907825	0.004406247489
4	397956	541.262753902401	0.006430994576
4	397965	541.268268441129	0.005514538728
4	397998	541.335328211522	0.067059770393
4	398005	541.33862116221	0.003292950688
4	398008	541.338767816467	0.000146654257
4	398031	541.379548021477	0.04078020501
4	398092	541.463440434761	0.083892413284
4	398129	541.514228133344	0.050787698583
4	398176	541.586661441155	0.072433307811
4	398183	541.590312440325	0.00365099917
4	398186	541.59239955483	0.002087114505
4	398189	541.592675177216	0.000275622386
4	398192	541.592908597659	0.000233420443
4	398255	541.691007937076	0.098099339417
4	398258	541.693465644796	0.00245770772
4	398285	541.714853526031	0.021387881235
4	398312	541.725082710289	0.010229184258
4	398319	541.725798242084	0.000715531795
4	398338	541.733152278366	0.007354036282
4	398381	541.773679142354	0.040526863988
4	398384	541.775129612325	0.001450469971
4	398395	541.788224846802	0.013095234477
4	398406	541.795482477697	0.007257630895
4	398413	541.79607593729	0.000593459593
4	398420	541.81426829069	0.0181923534
4	398443	541.853318400692	0.039050110002
4	398446	541.853860404385	0.000542003693
4	398481	541.921320989144	0.067460584759
4	398496	541.956713727331	0.035392738187
4	398519	541.99784046728	0.041126739949
4	398537	542.004688292394	0.006847825114
4	398548	542.030543387801	0.025855095407
4	398567	542.050185182925	0.019641795124
4	398570	542.050552314943	0.000367132018
4	398577	542.055993711127	0.005441396184
4	398588	542.08092481288	0.024931101753
4	398613	542.101796294754	0.020871481874
4	398630	542.126519223394	0.02472292864
4	398653	542.234345241416	0.107826018022
4	398672	542.260583686869	0.026238445453
4	398675	542.260946553974	0.000362867105
4	398690	542.272318161204	0.01137160723
4	398697	542.27604022207	0.003722060866
4	398704	542.27874466012	0.00270443805
4	398719	542.284525501734	0.005780841614
4	398726	542.286205464765	0.001679963031
4	398733	542.287760474596	0.001555009831
4	398746	542.293022630728	0.005262156132
4	398777	542.302347149227	0.009324518499
4	398784	542.304804976963	0.002457827736
4	398807	542.319207197072	0.014402220109
4	398816	542.323605359994	0.004398162922
4	398841	542.36048814832	0.036882788326
4	398874	542.397799970551	0.037311822231
4	398885	542.404351588165	0.006551617614
4	398894	542.411821142386	0.007469554221
4	398899	542.412184014685	0.000362872299
4	398902	542.412360948961	0.000176934276
4	398955	542.451985413213	0.039624464252
4	398964	542.455162586507	0.003177173294
4	399023	542.63519117772	0.180028591213
4	399038	542.645448784151	0.010257606431
4	399053	542.653103119864	0.007654335713
4	399098	542.716889475722	0.063786355858
4	399101	542.717806077019	0.000916601297
4	399108	542.721536117262	0.003730040243
4	399111	542.721875236776	0.000339119514
4	399120	542.726772660249	0.004897423473
4	399135	542.759606267855	0.032833607606
4	399138	542.760606184681	0.000999916826
4	399161	542.777648992546	0.017042807865
4	399180	542.823866140734	0.046217148188
4	399187	542.827925648548	0.004059507814
4	399220	542.869645454828	0.04171980628
4	399280	543.071242917311	0.201597462483
4	399299	543.088208143869	0.016965226558
4	399310	543.092613101716	0.004404957847
4	399321	543.103286029279	0.010672927563
4	399344	543.11682309725	0.013537067971
4	399359	543.125845269092	0.009022171842
4	399362	543.126424820711	0.000579551619
4	399377	543.138386901824	0.011962081113
4	399384	543.157158799594	0.01877189777
4	399415	543.196060759163	0.038901959569
4	399422	543.196464663925	0.000403904762
4	399435	543.199612052366	0.003147388441
4	399458	543.209679545866	0.0100674935
4	399461	543.210011153514	0.000331607648
4	399510	543.234622087883	0.024610934369
4	399541	543.269454209191	0.034832121308
4	399544	543.270693143313	0.001238934122
4	399595	543.326908171251	0.056215027938
4	399614	543.335660560427	0.008752389176
4	399617	543.337384203072	0.001723642645
4	399628	543.347662658604	0.010278455532
4	399631	543.348330843816	0.000668185212
4	399654	543.374276554431	0.025945710615
4	399669	543.390476568135	0.016200013704
4	399672	543.393315535588	0.002838967453
4	399687	543.405683662519	0.012368126931
4	399710	543.420115283874	0.014431621355
4	399713	543.42024620298	0.000130919106
4	399722	543.424675062353	0.004428859373
4	399731	543.427967278139	0.003292215786
4	399742	543.445930877212	0.017963599073
4	399761	543.476659597654	0.030728720442
4	399776	543.496527111676	0.019867514022
4	399787	543.536853355144	0.040326243468
4	399794	543.537509575628	0.000656220484
4	399839	543.620727849527	0.083218273899
4	399860	543.627841588058	0.007113738531
4	399871	543.634134152671	0.006292564613
4	399886	543.644370899261	0.01023674659
4	399929	543.72740989074	0.083038991479
4	399952	543.829439126268	0.102029235528
4	399957	543.831053259319	0.001614133051
4	399990	543.863118258993	0.032064999674
4	400005	543.868802587801	0.005684328808
4	400008	543.868925559734	0.000122971933
4	400027	543.902684361562	0.033758801828
4	400038	543.923335135516	0.020650773954
4	400041	543.925040041354	0.001704905838
4	400064	543.977394387704	0.05235434635
4	400075	543.992831276733	0.015436889029
4	400101	544.026267002134	0.033435725401
4	400116	544.035307037025	0.009040034891
4	400123	544.043986258512	0.008679221487
4	400126	544.044035935432	4.967692e-05
4	400137	544.068159209324	0.024123273892
4	400148	544.075504151659	0.007344942335
4	400151	544.075568620158	6.4468499e-05
4	400166	544.079490870201	0.003922250043
4	400193	544.113043770085	0.033552899884
4	400220	544.121929749104	0.008885979019
4	400295	544.267668991795	0.145739242691
4	400314	544.291624818665	0.02395582687
4	400317	544.293650412707	0.002025594042
4	400384	544.394980242722	0.101329830015
4	400393	544.39678003765	0.001799794928
4	400422	544.438026170066	0.041246132416
4	400449	544.475554077996	0.03752790793
4	400452	544.475733352349	0.000179274353
4	400455	544.476436383687	0.000703031338
4	400470	544.485972614969	0.009536231282
4	400479	544.489244355221	0.003271740252
4	400482	544.49095904232	0.001714687099
4	400501	544.506974876513	0.016015834193
4	400510	544.51693799913	0.009963122617
4	400537	544.559337315902	0.042399316772
4	400552	544.613044564528	0.053707248626
4	400555	544.614446671383	0.001402106855
4	400566	544.62173103048	0.007284359097
4	400573	544.627626905535	0.005895875055
4	400588	544.651709803478	0.024082897943
4	400593	544.653202944658	0.00149314118
4	400596	544.654227653417	0.001024708759
4	400613	544.658338131129	0.004110477712
4	400640	544.677075894898	0.018737763769
4	400677	544.699230122889	0.022154227991
4	400788	544.803242126	0.104012003111
4	400793	544.803612335724	0.000370209724
4	400814	544.812166733079	0.008554397355
4	400823	544.813851512815	0.001684779736
4	400830	544.81678606936	0.002934556545
4	400835	544.81906745953	0.00228139017
4	400860	544.850318922399	0.031251462869
4	400863	544.852291482219	0.00197255982
4	400900	544.876814306195	0.024522823976
4	400903	544.876938587457	0.000124281262
4	400910	544.878522757488	0.001584170031
4	400913	544.878746097245	0.000223339757
4	400932	544.883859181721	0.005113084476
4	400935	544.88499197412	0.001132792399
4	400956	544.906591764994	0.021599790874
4	400959	544.907940371815	0.001348606821
4	400966	544.909242384147	0.001302012332
4	401011	544.997562344899	0.088319960752
4	401016	544.999380323357	0.001817978458
4	401079	545.082229504492	0.082849181135
4	401092	545.089606169691	0.007376665199
4	401159	545.172547554734	0.082941385043
4	401186	545.190556100302	0.018008545568
4	401191	545.192107318365	0.001551218063
4	401202	545.203840274645	0.01173295628
4	401235	545.279747507416	0.075907232771
4	401238	545.280340005936	0.00059249852
4	401241	545.280678698998	0.000338693062
4	401246	545.281139007429	0.000460308431
4	401265	545.29864745339	0.017508445961
4	401278	545.306499570702	0.007852117312
4	401281	545.306819236077	0.000319665375
4	401314	545.385532551652	0.078713315575
4	401317	545.386959172202	0.00142662055
4	401332	545.395520245018	0.008561072816
4	401375	545.481400699555	0.085880454537
4	401390	545.490732459693	0.009331760138
4	401405	545.49632641303	0.005593953337
4	401452	545.601445083492	0.105118670462
4	401495	545.643606526961	0.042161443469
4	401540	545.6653216543	0.021715127339
4	401553	545.676305360936	0.010983706636
4	401556	545.677005559704	0.000700198768
4	401561	545.678082508075	0.001076948371
4	401610	545.748762319723	0.070679811648
4	401633	545.784996730735	0.036234411012
4	401652	545.815296373067	0.030299642332
4	401659	545.816268403404	0.000972030337
4	401664	545.817630750248	0.001362346844
4	401669	545.818567800936	0.000937050688
4	401682	545.826415578921	0.007847777985
4	401717	545.851911915241	0.02549633632
4	401726	545.8625087165	0.010596801259
4	401761	545.932188853229	0.069680136729
4	401768	545.935510134022	0.003321280793
4	401783	545.946816833898	0.011306699876
4	401786	545.947461594744	0.000644760846
4	401803	545.960187362751	0.012725768007
4	401818	545.963137781536	0.002950418785
4	401837	545.983347626388	0.020209844852
4	401877	546.029967082907	0.046619456519
4	401884	546.034388585763	0.004421502856
4	401897	546.040665299714	0.006276713951
4	401900	546.040981148723	0.000315849009
4	401905	546.043599289722	0.002618140999
4	401908	546.044021303408	0.000422013686
4	401911	546.045562152507	0.001540849099
4	401922	546.051676587958	0.006114435451
4	401945	546.06224575152	0.010569163562
4	401956	546.065234238775	0.002988487255
4	401959	546.072733995183	0.007499756408
4	401970	546.081880523012	0.009146527829
4	401977	546.086218869316	0.004338346304
4	401998	546.118741189872	0.032522320556
4	402007	546.122793707436	0.004052517564
4	402010	546.123293123458	0.000499416022
4	402073	546.219721706898	0.09642858344
4	402116	546.267131794538	0.04741008764
4	402131	546.274906438271	0.007774643733
4	402138	546.279845691507	0.004939253236
4	402189	546.3506424138	0.070796722293
4	402220	546.401215335827	0.050572922027
4	402231	546.42641553161	0.025200195783
4	402234	546.427364762347	0.000949230737
4	402237	546.427515750657	0.00015098831
4	402262	546.448000264342	0.020484513685
4	402267	546.448830144907	0.000829880565
4	402314	546.527790744211	0.078960599304
4	402321	546.533730957539	0.005940213328
4	402336	546.541067605016	0.007336647477
4	402343	546.547685771883	0.006618166867
4	402354	546.55778565199	0.010099880107
4	402373	546.626890690662	0.069105038672
4	402396	546.665929160973	0.039038470311
4	402419	546.687121439961	0.021192278988
4	402456	546.761404793994	0.074283354033
4	402459	546.762593732654	0.00118893866
4	402462	546.763510359197	0.000916626543
4	402471	546.766024783685	0.002514424488
4	402490	546.779361314459	0.013336530774
4	402513	546.809236579649	0.02987526519
4	402524	546.816903123651	0.007666544002
4	402531	546.842268250754	0.025365127103
4	402546	546.856748253202	0.014480002448
4	402549	546.860365297978	0.003617044776
4	402580	546.895905516934	0.035540218956
4	402615	546.950131910914	0.05422639398
4	402630	546.990885757848	0.040753846934
4	402633	546.991229128999	0.000343371151
4	402675	547.069878619878	0.078649490879
4	402686	547.079560767861	0.009682147983
4	402709	547.097032614753	0.017471846892
4	402780	547.199554795472	0.102522180719
4	402787	547.200861265669	0.001306470197
4	402794	547.210048576252	0.009187310583
4	402821	547.257887554464	0.047838978212
4	402840	547.290088574363	0.032201019899
4	402843	547.292172550616	0.002083976253
4	402854	547.29473799161	0.002565440994
4	402881	547.308375764978	0.013637773368
4	402898	547.32226567254	0.013889907562
4	402915	547.329818774317	0.007553101777
4	402926	547.335817907416	0.005999133099
4	402929	547.336046560327	0.000228652911
4	402936	547.336310010773	0.000263450446
4	402951	547.343894790879	0.007584780106
4	403030	547.430113057233	0.086218266354
4	403035	547.431939576499	0.001826519266
4	403042	547.435208907912	0.003269331413
4	403045	547.436465871978	0.001256964066
4	403074	547.450170374078	0.0137045021
4	403081	547.452694826544	0.002524452466
4	403086	547.453077881337	0.000383054793
4	403099	547.455038583163	0.001960701826
4	403102	547.455301288732	0.000262705569
4	403137	547.491142357195	0.035841068463
4	403164	547.535012623554	0.043870266359
4	403199	547.581434416311	0.046421792757
4	403202	547.581474184566	3.9768255e-05
4	403233	547.637352910022	0.055878725456
4	403236	547.637761231023	0.000408321001
4	403247	547.644080045334	0.006318814311
4	403254	547.647130321734	0.0030502764
4	403267	547.687905096274	0.04077477454
4	403280	547.691095834557	0.003190738283
4	403303	547.738389389336	0.047293554779
[...]
5	1103254	1488.356960626092	0.02323712441
5	1103257	1488.357083419237	0.835199375421
5	1103270	1488.397948762982	1.674494543997
5	1103277	1488.402376941111	0.004428178129
5	1103280	1488.4030426349	0.000665693789
5	1103291	1488.418275007788	0.848639435689
5	1103294	1488.41873418306	0.000459175272
5	1103341	1488.501107901181	1.709089201197
5	1103354	1488.526482424614	0.78550433505
5	1103359	1488.526985126696	0.000502702082
5	1103380	1488.537898167735	0.010913041039
5	1103393	1488.550859953355	0.787148307413
5	1103410	1488.556485448184	0.767864842359
5	1103419	1488.563321940135	0.006836491951
5	1103446	1488.57694672815	3.206036790783
5	1103455	1488.589675172394	3.213464030652
5	1103458	1488.590293700285	0.02697176015
5	1103491	1488.6026143757	0.02566764755
5	1103494	1488.603426955634	0.01375178324
5	1103505	1488.608990127784	0.00556317215
5	1103512	1488.613643791111	1.717635168561
5	1103535	1488.637867666122	0.777660785678
5	1103578	1488.670628175555	3.193442267457
5	1103601	1488.711038184586	4.573421090282
5	1103604	1488.713885140302	0.002846955716
5	1103619	1488.721804793625	3.194950700654
5	1103658	1488.785374359486	1.669464221053
5	1103709	1488.874436291478	0.680752621283
5	1103720	1488.882694411097	5.982173983852
5	1103739	1488.937480067375	1.615661013691
5	1103750	1488.93932029893	7.579376649196
5	1103761	1488.954360247024	0.015039948094
5	1103768	1488.955480471227	5.956154770653
5	1103775	1488.960946908405	0.680962946599
5	1103786	1488.986526110069	0.699390681005
5	1103799	1488.996118090865	0.654554814762
5	1103802	1488.996526370358	0.010000260289
5	1103805	1488.997314063787	0.001195972922
5	1103833	1489.037869981578	6.070277218301
5	1103836	1489.041912368549	0.004042386971
5	1103843	1489.046171940569	0.643129305669
5	1103846	1489.047071692336	0.000899751767
5	1103849	1489.047262654689	0.000190962353
5	1103860	1489.051473702376	1.470551058061
5	1103879	1489.070550285101	3.159911717464
5	1103882	1489.071243583456	2.342261902793
5	1103885	1489.075231216788	0.023757514412
5	1103888	1489.07648169972	0.005931414619
5	1103931	1489.118734545561	5.213898447256
5	1103934	1489.119708893662	0.000974348101
5	1103949	1489.130368511204	3.121025990924
5	1104004	1489.183640412293	0.645742244558
5	1104019	1489.218511409798	0.628217709513
5	1104074	1489.377437197051	0.706809021496
5	1104089	1489.389447621839	0.012010424788
5	1104102	1489.399538348608	0.685653208306
5	1104105	1489.400545111767	2.368793721705
5	1104118	1489.408382646477	0.00783753471
5	1104129	1489.417958258618	0.696153464993
5	1104170	1489.51810794488	3.970509135127
5	1104187	1489.534498955486	0.749124596
5	1104198	1489.545296647164	0.010797691678
5	1104217	1489.554390774023	4.550728183174
5	1104228	1489.557056712549	0.002665938526
5	1104243	1489.567463729725	0.010407017176
5	1104298	1489.636258538295	0.761822246817
5	1104305	1489.65650732303	0.773812911933
5	1104324	1489.665323097001	0.727843029626
5	1104353	1489.69164417045	0.695117800092
5	1104356	1489.692187414271	1.335226788179
5	1104363	1489.6950061921	0.002818777829
5	1104388	1489.763484469314	1.406401050077
5	1104407	1489.805626957768	0.758364303079
5	1104426	1489.828892713808	0.757649130352
5	1104447	1489.834403621172	5.952946433193
5	1104454	1489.836438432323	0.002034811151
5	1104463	1489.838716162285	3.88395347863
5	1104468	1489.839236489754	0.000520327469
5	1104497	1489.896388715556	1.395280814375
5	1104528	1489.964802838469	2.183872226203
5	1104551	1489.981134378717	1.430274425362
5	1104586	1490.038557914304	1.435943538604
5	1104605	1490.056100233358	1.442456442247
5	1104644	1490.097388257433	2.232175113299
5	1104707	1490.215332217955	2.244623747596
5	1104724	1490.223119294982	13.781343980003
5	1104739	1490.230436565889	3.066229540631
5	1104776	1490.284513214916	7.586337383357
5	1104779	1490.28562164295	0.001108428034
5	1104794	1490.313434949534	4.654633761722
5	1104797	1490.314256399689	0.000821450155
5	1104830	1490.348906066363	2.106924110642
5	1104859	1490.3840996611	0.69245549065
5	1104866	1490.391462913052	0.007363251952
5	1104877	1490.401573911947	0.010110998895
5	1104908	1490.419854799961	2.001120616901
5	1104911	1490.420199802647	0.000345002686
5	1104914	1490.420373480343	0.000173677696
5	1104929	1490.426890895088	1.350409195368
5	1104956	1490.446113843811	0.019222948723
5	1105027	1490.592952573726	1.409312161433
5	1105034	1490.599684262623	0.006731688897
5	1105041	1490.602504908564	0.002820645941
5	1105072	1490.672280128907	2.818644268819
5	1105115	1490.712916471262	2.828704481716
5	1105154	1490.78617956806	1.368221309442
5	1105237	1490.917260359486	0.701928141531
5	1105280	1490.965196768008	0.650940368319
5	1105283	1490.967193961365	0.001997193357
5	1105286	1490.968721807812	0.001527846447
5	1105289	1490.968891175017	0.000169367205
5	1105296	1490.971806075219	6.677446948519
5	1105341	1491.009999527649	2.776486745371
5	1105344	1491.011893966134	0.001894438485
5	1105355	1491.021898928584	2.06753868156
5	1105378	1491.120986957486	1.425980765386
5	1105389	1491.12964585766	0.008658900174
5	1105404	1491.171914089813	2.174600026026
5	1105407	1491.173103580306	0.001189490493
5	1105422	1491.179237715584	0.006134135278
5	1105429	1491.182143961258	0.002906245674
5	1105432	1491.182748461957	0.000604500699
5	1105435	1491.182976865952	0.000228403995
5	1105450	1491.215150208215	0.794776727872
5	1105453	1491.21561702872	0.000466820505
5	1105472	1491.246527657485	1.440900699717
5	1105483	1491.276377759832	0.830263916021
5	1105518	1491.327074683681	3.643617659761
5	1105545	1491.395747187313	1.430944348844
5	1105556	1491.404490281558	3.62879850381
5	1105575	1491.429433652653	0.826928744089
5	1105622	1491.462243586612	7.443524601639
5	1105657	1491.569741631351	1.472353373918
5	1105660	1491.569944014977	0.000202383626
5	1105675	1491.596654359542	0.88373788828
5	1105678	1491.597212999681	0.000558640139
5	1105689	1491.60936941573	2.219921793891
5	1105724	1491.696116211092	3.695808892887
5	1105735	1491.70128442191	0.005168210818
5	1105746	1491.7031820389	0.00189761699
5	1105749	1491.704873391725	0.001691352825
5	1105752	1491.709517845546	0.004644453821
5	1105779	1491.725225698155	4.528556638105
5	1105802	1491.75212133039	1.46649968744
5	1105821	1491.770477503227	0.798671428008
5	1105828	1491.773560752616	0.003083249389
5	1105839	1491.7958675436	2.159609005305
5	1105876	1491.815250113861	0.793351185277
5	1105889	1491.818739946888	0.003489833027
5	1105932	1491.902213721758	1.500639809811
5	1105935	1491.902506787791	0.000293066033
5	1106002	1491.995302236012	2.87559334235
5	1106068	1492.158880313465	2.120322399161
5	1106071	1492.163399118309	0.004518804844
5	1106080	1492.183553830241	3.574563702457
5	1106107	1492.1993531177	2.143252884342
5	1106172	1492.306261807114	2.083142512132
5	1106211	1492.322425685261	0.016163878147
5	1106270	1492.376937763047	2.720430440017
5	1106299	1492.40400509907	2.738682002069
5	1106316	1492.412166816314	1.40027285018
5	1106355	1492.473240709741	3.512293801336
5	1106366	1492.478121463363	0.004880753622
5	1106399	1492.495970763854	2.73248629454
5	1106404	1492.498725395283	1.369079537623
5	1106419	1492.522844073169	1.276316415684
5	1106434	1492.556579245668	1.280201485836
5	1106461	1492.640917333243	1.313842649562
5	1106468	1492.649191616141	0.008274282898
5	1106487	1492.660039132675	2.763650417119
5	1106494	1492.666967456311	0.006928323636
5	1106519	1492.69029746427	0.023330007959
5	1106526	1492.691176072959	0.000878608689
5	1106571	1492.754355572963	2.773221194246
5	1106586	1492.762512760452	5.871201546595
5	1106589	1492.762534125471	1.333100472818
5	1106592	1492.763092012854	0.599692894545
5	1106595	1492.76331504352	0.000802283068
5	1106618	1492.785002526827	3.566491117029
5	1106641	1492.824770061221	11.738417486637
5	1106644	1492.826981236289	0.002211175068
5	1106657	1492.840703469232	1.243490469551
5	1106666	1492.845420241194	0.004716771962
5	1106685	1492.851764014301	1.281819999324
5	1106690	1492.852890365244	4.974571673281
5	1106693	1492.853856305886	0.002092291585
5	1106696	1492.854216590662	0.001326225418
5	1106717	1492.895510763955	3.495972415347
5	1106724	1492.8997152117	0.004204447745
5	1106727	1492.900635049818	0.000919838118
5	1106730	1492.90080759262	0.000172542802
5	1106733	1492.900890505804	8.2913184e-05
5	1106752	1492.915702683873	1.206184838327
5	1106779	1492.934178436847	3.388881789683
5	1106786	1492.966374663118	2.735938097229
5	1106824	1493.05878498922	3.491321259495
5	1106841	1493.075575610136	0.016790620916
5	1106846	1493.079559476885	0.003983866749
5	1106869	1493.117387578388	0.713382479318
5	1106874	1493.118792432875	0.001404854487
5	1106887	1493.138963224848	2.790057158485
5	1106894	1493.151570265789	0.673448802426
5	1106913	1493.175217675101	1.992240809149
5	1106918	1493.177023360631	0.00180568553
5	1106947	1493.215274266985	4.140043050197
5	1106958	1493.228927102707	3.392488670384
5	1106973	1493.258367829287	3.429475115479
5	1106988	1493.262881844912	3.423645355158
5	1107013	1493.310891291978	4.180522780774
5	1107016	1493.312662902068	1.916915714755
5	1107021	1493.313303004311	0.002411712333
5	1107032	1493.317639719936	0.004976817868
5	1107039	1493.358407420985	5.608766498902
5	1107050	1493.363692943943	0.005285522958
5	1107093	1493.40171292738	0.639178801909
5	1107096	1493.402686183988	0.000973256608
5	1107099	1493.403601190836	0.000915006848
5	1107102	1493.404599058216	0.00099786738
5	1107149	1493.506854325431	1.307501207731
5	1107230	1493.575598538352	4.167215891875
5	1107263	1493.636984554206	0.702806117359
5	1107310	1493.707958593932	2.790698234446
5	1107337	1493.750851084651	1.998729754261
5	1107340	1493.751947397044	0.001096312393
5	1107343	1493.752619350067	0.000671953023
5	1107378	1493.835364743965	1.423197927651
5	1107389	1493.843541031498	0.724748598623
5	1107396	1493.849007891892	0.013643147927
5	1107399	1493.849572604701	0.000564712809
5	1107452	1493.906705516502	0.729682155871
5	1107467	1493.921515311531	2.705898282811
5	1107470	1493.922425491075	4.966945019848
5	1107538	1494.023502222962	0.765134393675
5	1107561	1494.031556319653	0.768674474741
5	1107564	1494.032443331605	0.000887011952
5	1107591	1494.052677171741	0.73937416743
5	1107618	1494.094650991268	1.403474918309
5	1107621	1494.096066116339	0.001415125071
5	1107632	1494.13481312227	1.380457549307
5	1107651	1494.176781704551	1.413466661031
5	1107710	1494.380679254145	1.479788748341
5	1107715	1494.3808457631	0.000166508955
5	1107736	1494.416091880369	0.840493342017
5	1107759	1494.43981768808	1.524115004207
5	1107778	1494.463221277575	1.496846614457
5	1107795	1494.502665895859	2.180240210598
5	1107798	1494.502717302624	4.984609357744
5	1107811	1494.5076407868	0.004974890941
5	1107850	1494.544051580885	6.4259234072
5	1107855	1494.545732433742	0.001680852857
5	1107858	1494.547658296247	0.79503894618
5	1107903	1494.622327889282	1.483364664434
5	1107930	1494.708793924688	5.666881556139
5	1107953	1494.721527718085	2.225556954231
5	1107956	1494.721650012732	0.000122294647
5	1107961	1494.721918449433	0.000268436701
5	1107994	1494.744924311297	1.529650044312
5	1108033	1494.84538455124	3.440894269682
5	1108080	1494.896423437884	0.761610315614
5	1108091	1494.900464327321	1.536771383378
5	1108140	1494.925824861433	0.749043156882
5	1108147	1494.926395772931	3.464152186319
5	1108150	1494.927933855619	0.002108994186
5	1108167	1494.935747332054	0.009351559123
5	1108174	1494.961922871815	2.176920344988
5	1108193	1494.986546552021	0.024623680206
5	1108196	1494.986885624623	0.000339072602
5	1108203	1494.989736080292	0.002850455669
5	1108222	1495.056472960447	4.38419283154
5	1108261	1495.106652834021	0.725807070921
5	1108268	1495.109648759434	3.500279343704
5	1108271	1495.110031761985	0.000383002551
5	1108280	1495.119873288119	2.274453046925
5	1108323	1495.156505367498	7.069705525195
5	1108336	1495.163957439696	0.007452072198
5	1108383	1495.190663326644	3.465437628489
5	1108522	1495.340402710659	1.418887399128
5	1108537	1495.360321962891	2.861596567608
5	1108576	1495.427051452978	0.682127141681
5	1108589	1495.433104017948	2.204176915241
5	1108592	1495.434313675947	2.911469602778
5	1108599	1495.437477933844	0.003164257897
5	1108618	1495.441652727413	0.004174793569
5	1108627	1495.44492621582	2.888346970152
5	1108652	1495.482124222644	2.832932606503
5	1108657	1495.482916463926	1.450473132321
5	1108668	1495.487747766283	0.642363215043
5	1108671	1495.487989665096	0.000241898813
5	1108678	1495.488812911554	1.436135739813
5	1108687	1495.490181843758	2.172542123822
5	1108776	1495.632052176586	2.125197851155
5	1108781	1495.634175112646	0.00212293606
5	1108784	1495.636577578428	0.580104617981
5	1108787	1495.638589299713	0.004414187067
5	1108798	1495.6440050006	2.817023764311
5	1108819	1495.700737578064	7.855456286849
5	1108874	1495.763776855422	0.643903567303
5	1108905	1495.819225652872	2.182241098666
5	1108920	1495.849057711322	0.685100271626
5	1108939	1495.878698886202	1.375981583578
5	1108942	1495.879601814759	0.000902928557
5	1108945	1495.882372988403	0.002771173644
5	1108976	1495.919288110179	1.373555676437
5	1108987	1495.925731740339	4.956840565322
5	1108992	1495.927234763441	4.131367219841
5	1109021	1495.95418086161	4.135440914722
5	1109036	1495.970690116442	1.34836222716
5	1109054	1496.000006927884	2.150434323183
5	1109081	1496.064853964622	2.913283698833
5	1109112	1496.088941369081	0.748538658422
5	1109115	1496.091318872615	0.002377503534
5	1109134	1496.13154785154	2.209122360465
5	1109147	1496.149932978337	0.722881525359
5	1109180	1496.169116959214	0.68699273657
5	1109183	1496.17071726422	0.001600305006
5	1109194	1496.178022224867	0.744918206919
5	1109219	1496.189716328335	0.011694103468
5	1109222	1496.190522130472	0.707605666546
5	1109227	1496.191668695271	0.001146564799
5	1109234	1496.198092776743	2.102026660404
5	1109263	1496.21703977976	3.453947766906
5	1109266	1496.217572681692	1.317108354371
5	1109269	1496.21981869282	0.00277891306
5	1109308	1496.245187573479	0.756374661925
5	1109317	1496.247357381086	1.311610049032
5	1109320	1496.247654826487	0.000297445401
5	1109327	1496.269128187381	7.631260521259
5	1109330	1496.269170051223	4.1863842e-05
5	1109349	1496.285208516178	1.295472435886
5	1109352	1496.285270749909	6.2233731e-05
5	1109391	1496.37217104351	3.518314737624
5	1109444	1496.513685021412	2.073867333332
5	1109469	1496.612929631702	0.730556643299
5	1109480	1496.660912475907	4.887351723291
5	1109535	1496.736199299393	0.782018437783
5	1109542	1496.745819985249	0.775129868807
5	1109557	1496.768690115157	0.841455351716
5	1109560	1496.769552862968	0.000862747811
5	1109569	1496.771192405529	0.001639542561
5	1109594	1496.791197381016	4.888690593225
5	1109609	1496.81993080482	0.755076840198
5	1109628	1496.866411191088	1.506089228197
5	1109643	1496.878419884119	0.012008693031
5	1109662	1496.896365438452	1.451439222632
5	1109693	1496.920303669591	2.896801446629
5	1109700	1496.921217969329	0.000914299738
5	1109723	1496.983424190828	0.793707862493
5	1109773	1497.014500992374	1.524319148616
5	1109792	1497.024681493979	0.804862801159
5	1109803	1497.030409985694	0.005728491715
5	1109814	1497.082031228746	3.67743217053
5	1109845	1497.101958686222	2.174024830603
5	1109856	1497.112349892618	0.010391206396
5	1109863	1497.12533234461	0.880144771131
5	1109886	1497.148302624789	0.879132573566
5	1109929	1497.203768234485	1.503030656421
5	1109934	1497.204504074012	1.567926495584
5	1109939	1497.205936377409	0.002168142924
5	1109974	1497.266467237631	2.156435475646
5	1109995	1497.288880314005	1.525103458583
5	1110006	1497.295010179682	13.085469115647
5	1110035	1497.322614420286	2.859393142711
5	1110038	1497.322749321225	0.000134900939
5	1110045	1497.326943657051	0.813258635639
5	1110050	1497.329889311775	0.002945654724
5	1110063	1497.344430398195	3.636471804263
5	1110086	1497.383296270543	0.722383794636
5	1110097	1497.396384021731	0.013087751188
5	1110110	1497.402809526551	0.00642550482
5	1110113	1497.403567978735	2.855909682488
5	1110118	1497.403659866171	0.00085033962
5	1110127	1497.409380871695	0.005721005524
5	1110136	1497.412689670622	1.486957930283
5	1110175	1497.498775785147	3.655234753649
5	1110178	1497.499605379212	0.000829594065
5	1110201	1497.521278193967	0.730080812951
5	1110204	1497.521790959476	0.000512765509
5	1110243	1497.62317627246	2.901257823027
5	1110282	1497.659340839748	1.488623575528
5	1110325	1497.702171507298	2.214181842202
5	1110332	1497.707958428493	0.005786921195
5	1110371	1497.730023301073	0.699613315379
5	1110398	1497.759096032925	0.646746140307
5	1110421	1497.767191482861	0.685160254115
5	1110424	1497.767446977483	0.000255494622
5	1110435	1497.778794055534	0.653461710924
5	1110438	1497.780111972233	0.001317916699
5	1110441	1497.780516665037	0.000404692804
5	1110472	1497.828193300369	2.184188299769
5	1110493	1497.837915220936	0.633411146924
5	1110506	1497.84575885675	0.007843635814
5	1110521	1497.894586384808	0.688650007399
5	1110528	1497.904408349876	1.532237306366
5	1110545	1497.924375194456	0.657907956825
5	1110548	1497.924633258505	7.138453690445
5	1110581	1497.968193577325	0.63830426555
5	1110594	1497.977130409801	2.157904756929
5	1110597	1497.97925640275	2.130198691428
5	1110610	1497.999563288073	1.386633656371
5	1110664	1498.091764763948	0.682383892253
5	1110671	1498.103050147063	0.690360476441
5	1110690	1498.125686458997	5.74874869595
5	1110697	1498.1433913738	1.407192074407
5	1110712	1498.175465958473	1.429645973224
5	1110715	1498.176432679687	0.000966721214
5	1110782	1498.316573923855	2.185026072315
5	1110785	1498.316980170764	0.000406246909
5	1110798	1498.32547689137	0.008496720606
5	1110807	1498.330221384981	2.180288406644
5	1110830	1498.386929017993	2.94527629058
5	1110837	1498.39322049547	1.496855057018
5	1110840	1498.394492411025	0.001271915555
5	1110843	1498.394523609331	3.1198306e-05
5	1110858	1498.42836333149	1.444939140662
5	1110879	1498.43844662229	0.779105782542
5	1110882	1498.43903732353	0.01067399204
5	1110887	1498.43959056365	0.00055324012
5	1110912	1498.451100493354	0.011509929704
5	1110921	1498.45441322196	0.003312728606
5	1110926	1498.455546680588	0.725523379515
5	1110975	1498.524226068474	0.765130035549
5	1110978	1498.525158562095	0.000932493621
5	1110993	1498.532239294193	1.383936669404
5	1111004	1498.535801381538	0.003562087345
5	1111051	1498.578593884198	2.940004584485
5	1111080	1498.588639494973	0.742880638223
5	1111109	1498.623783062701	5.769566472039
5	1111112	1498.623993282469	0.000210219768
5	1111119	1498.628602803178	0.703969544673
5	1111146	1498.689603089002	1.400722774997
5	1111153	1498.703028907906	0.734835330581
5	1111156	1498.703059498109	3.0590203e-05
5	1111263	1498.823780365013	0.72073021795
5	1111282	1498.838753313503	5.759193836618
5	1111305	1498.866552122036	0.027798808533
5	1111312	1498.867157220689	0.723765846889
5	1111335	1498.905274257052	2.134081851523
5	1111338	1498.905674880714	0.000400623662
5	1111385	1498.98286570715	5.076160190648
5	1111396	1498.989439375978	0.006573668828
5	1111403	1498.989893490508	0.00045411453
5	1111451	1499.042477365603	2.164057481484
5	1111482	1499.12612756533	2.934458870059
5	1111485	1499.126643526419	7.131341290407
5	1111570	1499.253071489675	1.485624512192
5	1111605	1499.281992790934	7.098438960693
5	1111608	1499.283511236203	0.001518445269
5	1111615	1499.287064388309	0.003553152106
5	1111632	1499.308124795719	0.729530911521
5	1111665	1499.353495837393	0.76485634242
5	1111708	1499.429708830555	2.134698650873
5	1111731	1499.477033132087	2.154283810862
5	1111738	1499.484314275643	0.794711186641
5	1111749	1499.496445333433	1.519314923632
5	1111828	1499.59449445487	3.675206344691
5	1111843	1499.60875263634	0.784972271327
5	1111862	1499.636018062413	2.136412683201
5	1111885	1499.658240416219	3.658233488335
5	1111904	1499.680942112842	2.159151153366
5	1112003	1499.880705145756	2.172746717263
5	1112006	1499.88074230045	3.7154694e-05
5	1112025	1499.900195652972	3.702102876229
5	1112038	1499.909014736881	3.691442055189
5	1112043	1499.911044287392	0.002029550511
5	1112066	1499.921950315049	5.025526877165
5	1112079	1499.932418256136	0.679346766461
5	1112120	1499.960117849856	3.712463023369

