version 2
run scenario1-3-20211222-17:37:05-12112
attr configname scenario1
attr datetime 20211222-17:37:05
attr experiment scenario1
attr inifile omnetpp.ini
attr iterationvars ""
attr iterationvarsf ""
attr measurement ""
attr network Network
attr processid 12112
attr repetition 3
attr replication #3
attr resultdir results
attr runnumber 3
attr seedset 3
param **.server.p1 0.2
param **.server.p2 0.385
param **.clients.num_clients 60
param **.processor.service_rate 1000
param **.disk.service_rate 300
param **.webServer.serv_rate_w 80
param **.clients.timeWindow 5s

vector 0 Network.clients pkt_counter:vector ETV
attr source pkt_counter_s
vector 1 Network.server.processor processor_backlog:vector ETV
attr source processor_backlog_s
vector 2 Network.server.disk disk_backlog:vector ETV
attr source disk_backlog_s
vector 3 Network.webServer wserver_backlog:vector ETV
attr source wserver_backlog_s
vector 4 Network.clients interarrival_time:vector ETV
attr source interarrival_time_s
vector 5 Network.clients response_time:vector ETV
attr source response_time_s
4	368662	500.013338218456	0.02454093185
4	368685	500.054472138231	0.041133919775
4	368706	500.09467927477	0.040207136539
4	368709	500.095266832657	0.000587557887
4	368718	500.098242629554	0.002975796897
4	368721	500.09856442166	0.000321792106
4	368736	500.130487894126	0.031923472466
4	368767	500.169919094374	0.039431200248
4	368786	500.24134443911	0.071425344736
4	368805	500.272775476661	0.031431037551
4	368808	500.272967078133	0.000191601472
4	368843	500.305114921301	0.032147843168
4	368850	500.344369628372	0.039254707071
4	368857	500.354025737479	0.009656109107
4	368876	500.365336308049	0.01131057057
4	368927	500.43914179406	0.073805486011
4	368970	500.523009634271	0.083867840211
4	368989	500.528768765461	0.00575913119
4	369058	500.592159780986	0.063391015525
4	369119	500.788723741863	0.196563960877
4	369134	500.803995945121	0.015272203258
4	369153	500.843903242368	0.039907297247
4	369200	500.972569813211	0.128666570843
4	369217	501.007202950841	0.03463313763
4	369224	501.009984895636	0.002781944795
4	369255	501.067316683596	0.05733178796
4	369338	501.189988632535	0.122671948939
4	369365	501.229417245275	0.03942861274
4	369372	501.232566356126	0.003149110851
4	369383	501.244285166151	0.011718810025
4	369398	501.25207213789	0.007786971739
4	369401	501.25239042457	0.00031828668
4	369416	501.26670644103	0.01431601646
4	369429	501.272434793333	0.005728352303
4	369456	501.318227078641	0.045792285308
4	369461	501.320264380999	0.002037302358
4	369472	501.327009550176	0.006745169177
4	369477	501.32995049566	0.002940945484
4	369486	501.331664148691	0.001713653031
4	369533	501.39874767948	0.067083530789
4	369552	501.449112376138	0.050364696658
4	369651	501.564544778649	0.115432402511
4	369670	501.670227447402	0.105682668753
4	369693	501.679872017848	0.009644570446
4	369700	501.687710066039	0.007838048191
4	369711	501.691206068477	0.003496002438
4	369718	501.693396858121	0.002190789644
4	369737	501.755023438161	0.06162658004
4	369756	501.779057758379	0.024034320218
4	369767	501.813373139757	0.034315381378
4	369862	501.964183506069	0.150810366312
4	369896	502.008229043702	0.044045537633
4	369915	502.033500071665	0.025271027963
4	369938	502.12767885648	0.094178784815
4	369945	502.134756599881	0.007077743401
4	369956	502.137522102604	0.002765502723
4	369967	502.142668676297	0.005146573693
4	369970	502.143343382727	0.00067470643
4	369981	502.159767405483	0.016424022756
4	369984	502.159919706134	0.000152300651
4	370103	502.308525527245	0.148605821111
4	370118	502.333260155401	0.024734628156
4	370133	502.361491340492	0.028231185091
4	370152	502.375051944696	0.013560604204
4	370203	502.4291677973	0.054115852604
4	370218	502.435082045136	0.005914247836
4	370229	502.440331998566	0.00524995343
4	370240	502.443154545888	0.002822547322
4	370339	502.621060634881	0.177906088993
4	370352	502.628771925361	0.00771129048
4	370355	502.634064640084	0.005292714723
4	370364	502.637490073516	0.003425433432
4	370381	502.648362640263	0.010872566747
4	370386	502.649531021078	0.001168380815
4	370389	502.650129597606	0.000598576528
4	370396	502.655475073065	0.005345475459
4	370431	502.6706944749	0.015219401835
4	370444	502.676853052572	0.006158577672
4	370475	502.694007627636	0.017154575064
4	370484	502.700797115526	0.00678948789
4	370499	502.729587847734	0.028790732208
4	370506	502.747991840952	0.018403993218
4	370521	502.788116979804	0.040125138852
4	370550	502.860776870728	0.072659890924
4	370563	502.874035456802	0.013258586074
4	370590	502.935520156724	0.061484699922
4	370605	502.945796539807	0.010276383083
4	370620	502.992320878856	0.046524339049
4	370650	503.01184310804	0.019522229184
4	370661	503.019478782199	0.007635674159
4	370688	503.082883585046	0.063404802847
4	370695	503.088314624775	0.005431039729
4	370698	503.088915940952	0.000601316177
4	370729	503.114583865271	0.025667924319
4	370748	503.167741807036	0.053157941765
4	370751	503.168509944664	0.000768137628
4	370758	503.173986149531	0.005476204867
4	370857	503.422428098937	0.248441949406
4	370864	503.489680534433	0.067252435496
4	370951	503.631668546727	0.141988012294
4	370966	503.640799801065	0.009131254338
4	370977	503.650134450234	0.009334649169
4	370986	503.652819252746	0.002684802512
4	370989	503.65481251591	0.001993263164
4	370992	503.65486622145	5.370554e-05
4	371001	503.660916939016	0.006050717566
4	371012	503.669510243518	0.008593304502
4	371023	503.67244505435	0.002934810832
4	371054	503.706020370276	0.033575315926
4	371069	503.712048775178	0.006028404902
4	371072	503.712400900244	0.000352125066
4	371079	503.717135804026	0.004734903782
4	371094	503.719130192708	0.001994388682
4	371109	503.728983700274	0.009853507566
4	371114	503.730246992452	0.001263292178
4	371139	503.742555658439	0.012308665987
4	371142	503.742670630388	0.000114971949
4	371149	503.752545051305	0.009874420917
4	371156	503.754682579232	0.002137527927
4	371203	503.821889088626	0.067206509394
4	371210	503.823325390535	0.001436301909
4	371237	503.862998521469	0.039673130934
4	371280	503.942905468736	0.079906947267
4	371299	503.987879419266	0.04497395053
4	371319	504.041326163308	0.053446744042
4	371328	504.047658471242	0.006332307934
4	371335	504.051180959176	0.003522487934
4	371362	504.09082361521	0.039642656034
4	371365	504.091857952098	0.001034336888
4	371380	504.110310343512	0.018452391414
4	371415	504.203527748123	0.093217404611
4	371422	504.207077477726	0.003549729603
4	371429	504.209371005728	0.002293528002
4	371436	504.219353844608	0.00998283888
4	371457	504.25759679152	0.038242946912
4	371472	504.264273037619	0.006676246099
4	371475	504.265311449385	0.001038411766
4	371488	504.276704824821	0.011393375436
4	371499	504.29656293837	0.019858113549
4	371502	504.297479191473	0.000916253103
4	371505	504.298573490339	0.001094298866
4	371516	504.304056491407	0.005483001068
4	371519	504.305363631626	0.001307140219
4	371542	504.314932276808	0.009568645182
4	371569	504.366137394188	0.05120511738
4	371588	504.376064861511	0.009927467323
4	371625	504.436826464204	0.060761602693
4	371650	504.452405461668	0.015578997464
4	371687	504.480016005568	0.0276105439
4	371720	504.506761008752	0.026745003184
4	371727	504.512193829264	0.005432820512
4	371786	504.606767416079	0.094573586815
4	371793	504.61063909864	0.003871682561
4	371808	504.630361301823	0.019722203183
4	371819	504.63912245909	0.008761157267
4	371826	504.641970090017	0.002847630927
4	371829	504.642430957761	0.000460867744
4	371860	504.68490420006	0.042473242299
4	371907	504.805570847276	0.120666647216
4	371910	504.806881630119	0.001310782843
4	371945	504.899056625545	0.092174995426
4	371964	504.927402192363	0.028345566818
4	371993	504.965637800639	0.038235608276
4	372022	504.997344255743	0.031706455104
4	372061	505.020399498891	0.023055243148
4	372072	505.030332078266	0.009932579375
4	372083	505.038685215265	0.008353136999
4	372106	505.079538206051	0.040852990786
4	372139	505.205869743235	0.126331537184
4	372148	505.254621618339	0.048751875104
4	372151	505.255387846715	0.000766228376
4	372170	505.260902001456	0.005514154741
4	372177	505.274010235823	0.013108234367
4	372244	505.334850680157	0.060840444334
4	372303	505.410178726725	0.075328046568
4	372306	505.410727877271	0.000549150546
4	372329	505.441344781785	0.030616904514
4	372344	505.486501470135	0.04515668835
4	372351	505.492918586644	0.006417116509
4	372378	505.554469568921	0.061550982277
4	372397	505.600185973074	0.045716404153
4	372406	505.607872954763	0.007686981689
4	372417	505.611280068271	0.003407113508
4	372436	505.615731965205	0.004451896934
4	372441	505.616255427074	0.000523461869
4	372466	505.631404017662	0.015148590588
4	372469	505.631516552617	0.000112534955
4	372488	505.65919453551	0.027677982893
4	372493	505.660397999888	0.001203464378
4	372552	505.752133682104	0.091735682216
4	372579	505.822125340949	0.069991658845
4	372582	505.822258253804	0.000132912855
4	372609	505.860120471258	0.037862217454
4	372626	505.875863064396	0.015742593138
4	372631	505.876483573718	0.000620509322
4	372654	505.904943746564	0.028460172846
4	372665	505.908492096157	0.003548349593
4	372678	505.929057760904	0.020565664747
4	372683	505.932974292192	0.003916531288
4	372698	505.939602615713	0.006628323521
4	372713	505.99864277126	0.059040155547
4	372716	505.999326916758	0.000684145498
4	372730	506.021040651488	0.02171373473
4	372733	506.021789026835	0.000748375347
4	372744	506.025972497043	0.004183470208
4	372751	506.030636223653	0.00466372661
4	372770	506.07239821774	0.041761994087
4	372841	506.201687280613	0.129289062873
4	372848	506.209011643433	0.00732436282
4	372863	506.255504163558	0.046492520125
4	372914	506.326147324597	0.070643161039
4	372987	506.462687718838	0.136540394241
4	372996	506.46835913872	0.005671419882
4	373009	506.48511488165	0.01675574293
4	373062	506.506922464426	0.021807582776
4	373069	506.510765822138	0.003843357712
4	373084	506.524371447349	0.013605625211
4	373095	506.526689178031	0.002317730682
4	373114	506.539555227865	0.012866049834
4	373121	506.544927801665	0.0053725738
4	373130	506.549235802565	0.0043080009
4	373139	506.551341404719	0.002105602154
4	373182	506.64468885211	0.093347447391
4	373189	506.654130633894	0.009441781784
4	373210	506.6773857446	0.023255110706
4	373217	506.681640328823	0.004254584223
4	373270	506.714945652463	0.03330532364
4	373281	506.731700625058	0.016754972595
4	373328	506.797211305994	0.065510680936
4	373335	506.812970702643	0.015759396649
4	373404	506.899394201222	0.086423498579
4	373407	506.900798471891	0.001404270669
4	373416	506.914725023607	0.013926551716
4	373431	506.921982015261	0.007256991654
4	373446	506.926690738751	0.00470872349
4	373497	506.989893619983	0.063202881232
4	373500	506.989974717574	8.1097591e-05
4	373507	506.992791438009	0.002816720435
4	373510	506.993809948273	0.001018510264
4	373529	506.999843913096	0.006033964823
4	373559	507.010887686936	0.01104377384
4	373566	507.011964349346	0.00107666241
4	373573	507.014393263402	0.002428914056
4	373596	507.041829872627	0.027436609225
4	373621	507.080233562681	0.038403690054
4	373636	507.086887352006	0.006653789325
4	373669	507.104322034346	0.01743468234
4	373674	507.10601471312	0.001692678774
4	373711	507.122206505945	0.016191792825
4	373738	507.138551898965	0.01634539302
4	373743	507.139264542254	0.000712643289
4	373780	507.218986441234	0.07972189898
4	373823	507.279693524852	0.060707083618
4	373828	507.280234398179	0.000540873327
4	373881	507.339269450723	0.059035052544
4	373906	507.37036233534	0.031092884617
4	373923	507.384269671241	0.013907335901
4	373934	507.394497762413	0.010228091172
4	373941	507.401074359505	0.006576597092
4	373952	507.430235035222	0.029160675717
4	373955	507.432755984824	0.002520949602
4	373958	507.434530739735	0.001774754911
4	373985	507.46606629244	0.031535552705
4	373988	507.46619594582	0.00012965338
4	374067	507.622729038987	0.156533093167
4	374072	507.624985361664	0.002256322677
4	374097	507.644499591718	0.019514230054
4	374164	507.800778375835	0.156278784117
4	374185	507.816589413126	0.015811037291
4	374188	507.818696085124	0.002106671998
4	374213	507.838127931038	0.019431845914
4	374238	507.858379810873	0.020251879835
4	374245	507.860378686918	0.001998876045
4	374252	507.86245426288	0.002075575962
4	374289	507.953418277819	0.090964014939
4	374292	507.953482818423	6.4540604e-05
4	374299	507.959684121255	0.006201302832
4	374306	507.964263875854	0.004579754599
4	374325	507.982588565478	0.018324689624
4	374332	507.98644922174	0.003860656262
4	374341	507.987580702556	0.001131480816
4	374344	507.989317770926	0.00173706837
4	374349	507.990260850826	0.0009430799
4	374393	508.019858382918	0.029597532092
4	374434	508.081764273465	0.061905890547
4	374489	508.19976066068	0.117996387215
4	374500	508.229696217372	0.029935556692
4	374531	508.290610864749	0.060914647377
4	374570	508.329559319445	0.038948454696
4	374589	508.34373246623	0.014173146785
4	374620	508.415228102664	0.071495636434
4	374623	508.420382300461	0.005154197797
4	374654	508.440840989521	0.02045868906
4	374685	508.474118176691	0.03327718717
4	374720	508.518382597289	0.044264420598
4	374723	508.518720626271	0.000338028982
4	374754	508.551022991817	0.032302365546
4	374773	508.592322294376	0.041299302559
4	374848	508.665870538281	0.073548243905
4	374857	508.672389378117	0.006518839836
4	374862	508.674271262479	0.001881884362
4	374881	508.714306863852	0.040035601373
4	374884	508.71535615605	0.001049292198
4	374887	508.716969963254	0.001613807204
4	374906	508.76087079042	0.043900827166
4	374951	508.815879684177	0.055008893757
4	374960	508.830420600413	0.014540916236
4	374983	508.917006071778	0.086585471365
4	374986	508.919199039445	0.002192967667
4	375033	508.952066331701	0.032867292256
4	375038	508.952866840363	0.000800508662
4	375055	508.963358892082	0.010492051719
4	375058	508.963438312708	7.9420626e-05
4	375073	508.994073656181	0.030635343473
4	375091	509.015845689102	0.021772032921
4	375110	509.072146612817	0.056300923715
4	375117	509.12653882851	0.054392215693
4	375128	509.167493034373	0.040954205863
4	375147	509.178005855724	0.010512821351
4	375194	509.232998512354	0.05499265663
4	375205	509.241537862616	0.008539350262
4	375224	509.2537772354	0.012239372784
4	375227	509.258850787407	0.005073552007
4	375230	509.259361086309	0.000510298902
4	375241	509.265235724601	0.005874638292
4	375246	509.266935716632	0.001699992031
4	375255	509.268504602017	0.001568885385
4	375274	509.326036605498	0.057532003481
4	375301	509.337627680291	0.011591074793
4	375328	509.374894995052	0.037267314761
4	375343	509.393019912418	0.018124917366
4	375346	509.393506973737	0.000487061319
4	375377	509.424526446885	0.031019473148
4	375390	509.433498868783	0.008972421898
4	375407	509.451199812428	0.017700943645
4	375474	509.516838661103	0.065638848675
4	375481	509.523386124974	0.006547463871
4	375504	509.549305457734	0.02591933276
4	375567	509.58943780471	0.040132346976
4	375570	509.589579351266	0.000141546556
4	375577	509.594250349181	0.004670997915
4	375580	509.594783785616	0.000533436435
4	375585	509.595780887037	0.000997101421
4	375590	509.597751468618	0.001970581581
4	375661	509.71348542497	0.115733956352
4	375664	509.713835191944	0.000349766974
4	375681	509.720408514705	0.006573322761
4	375690	509.723398446304	0.002989931599
4	375697	509.725767064407	0.002368618103
4	375708	509.729515229276	0.003748164869
4	375715	509.73029558127	0.000780351994
4	375766	509.838352561267	0.108056979997
4	375785	509.866598545882	0.028245984615
4	375802	509.900926715137	0.034328169255
4	375823	509.953829748663	0.052903033526
4	375838	509.956917900582	0.003088151919
4	375845	509.960828555185	0.003910654603
4	375884	510.049892516998	0.089063961813
4	375945	510.128427198838	0.07853468184
4	375948	510.128776979977	0.000349781139
4	375953	510.129679347926	0.000902367949
4	376004	510.176237299241	0.046557951315
4	376017	510.181712022797	0.005474723556
4	376026	510.186390270437	0.00467824764
4	376037	510.197965851509	0.011575581072
4	376044	510.201699426031	0.003733574522
4	376055	510.247643893097	0.045944467066
4	376154	510.438162811781	0.190518918684
4	376169	510.450055445926	0.011892634145
4	376232	510.511595688787	0.061540242861
4	376237	510.513404553501	0.001808864714
4	376302	510.54708820334	0.033683649839
4	376305	510.550323550935	0.003235347595
4	376326	510.568641843637	0.018318292702
4	376343	510.585193640262	0.016551796625
4	376346	510.586610259911	0.001416619649
4	376383	510.644623856064	0.058013596153
4	376392	510.648858271302	0.004234415238
4	376411	510.669968844896	0.021110573594
4	376414	510.670960474233	0.000991629337
4	376437	510.69140493014	0.020444455907
4	376452	510.699596954034	0.008192023894
4	376539	510.897328697751	0.197731743717
4	376550	510.942949806893	0.045621109142
4	376591	511.034738980998	0.091789174105
4	376598	511.035482352532	0.000743371534
4	376655	511.110877911267	0.075395558735
4	376658	511.112079319319	0.001201408052
4	376691	511.132854849404	0.020775530085
4	376694	511.133075214659	0.000220365255
4	376707	511.139987847476	0.006912632817
4	376710	511.140407117359	0.000419269883
4	376715	511.14169118305	0.001284065691
4	376726	511.151030655942	0.009339472892
4	376737	511.167400122148	0.016369466206
4	376780	511.215566703331	0.048166581183
4	376791	511.241371229598	0.025804526267
4	376802	511.245913025398	0.0045417958
4	376853	511.368166765643	0.122253740245
4	376860	511.377597419326	0.009430653683
4	376867	511.386445470419	0.008848051093
4	376870	511.386581695754	0.000136225335
4	376873	511.387217512932	0.000635817178
4	376880	511.39947252957	0.012255016638
4	376883	511.399855267499	0.000382737929
4	376898	511.417059935328	0.017204667829
4	376913	511.424296956737	0.007237021409
4	376924	511.466282762772	0.041985806035
4	376931	511.467690940875	0.001408178103
4	376950	511.505076437343	0.037385496468
4	377017	511.582676777297	0.077600339954
4	377020	511.584924573139	0.002247795842
4	377099	511.794177349724	0.209252776585
4	377110	511.797850370987	0.003673021263
4	377117	511.807066006599	0.009215635612
4	377120	511.807888259081	0.000822252482
4	377123	511.808695052901	0.00080679382
4	377130	511.82053212017	0.011837067269
4	377153	511.830553193743	0.010021073573
4	377200	511.905941353121	0.075388159378
4	377294	512.178112430624	0.272171077503
4	377337	512.22336549448	0.045253063856
4	377360	512.290941563269	0.067576068789
4	377379	512.303463175898	0.012521612629
4	377414	512.391458873677	0.087995697779
4	377425	512.40882294603	0.017364072353
4	377464	512.463232654188	0.054409708158
4	377495	512.536803129526	0.073570475338
4	377502	512.540264390692	0.003461261166
4	377529	512.622117521967	0.081853131275
4	377536	512.623290500677	0.00117297871
4	377559	512.655452475797	0.03216197512
4	377562	512.655845355991	0.000392880194
4	377573	512.660245440089	0.004400084098
4	377580	512.665788987639	0.00554354755
4	377587	512.678755804904	0.012966817265
4	377618	512.709336153274	0.03058034837
4	377653	512.734678787725	0.025342634451
4	377660	512.740679651994	0.006000864269
4	377671	512.746434104291	0.005754452297
4	377698	512.768583635275	0.022149530984
4	377719	512.781800771759	0.013217136484
4	377744	512.801017194144	0.019216422385
4	377755	512.814406172802	0.013388978658
4	377778	512.829109682824	0.014703510022
4	377825	512.869122097056	0.040012414232
4	377828	512.869391522876	0.00026942582
4	377831	512.869564372248	0.000172849372
4	377866	512.916614640862	0.047050268614
4	377925	512.959277850468	0.042663209606
4	377934	512.96491152951	0.005633679042
4	377994	513.122146177991	0.157234648481
4	378013	513.136329465957	0.014183287966
4	378036	513.192864683916	0.056535217959
4	378051	513.214636038207	0.021771354291
4	378054	513.214866162546	0.000230124339
4	378065	513.223241307243	0.008375144697
4	378078	513.23782417538	0.014582868137
4	378095	513.246974069675	0.009149894295
4	378134	513.31124850367	0.064274433995
4	378137	513.31141712432	0.00016862065
4	378150	513.31576644775	0.00434932343
4	378189	513.339195530496	0.023429082746
4	378200	513.343393365602	0.004197835106
4	378209	513.348377489889	0.004984124287
4	378224	513.365607223585	0.017229733696
4	378229	513.366646082044	0.001038858459
4	378242	513.37169941132	0.005053329276
4	378253	513.374641887656	0.002942476336
4	378300	513.49719259961	0.122550711954
4	378315	513.51512126548	0.01792866587
4	378334	513.574067470627	0.058946205147
4	378389	513.64017718362	0.066109712993
4	378396	513.644325664873	0.004148481253
4	378431	513.685882867712	0.041557202839
4	378444	513.698584548874	0.012701681162
4	378465	513.709268474353	0.010683925479
4	378564	513.847751341932	0.138482867579
4	378646	514.030493104559	0.182741762627
4	378665	514.04953734048	0.019044235921
4	378676	514.060830313949	0.011292973469
4	378707	514.153532100057	0.092701786108
4	378718	514.165937501976	0.012405401919
4	378721	514.166188584237	0.000251082261
4	378732	514.190609895068	0.024421310831
4	378759	514.202732963456	0.012123068388
4	378810	514.242824417446	0.04009145399
4	378829	514.252919141706	0.01009472426
4	378836	514.254773441994	0.001854300288
4	378839	514.255522130446	0.000748688452
4	378874	514.40659885275	0.151076722304
4	378891	514.442536605153	0.035937752403
4	378912	514.491980324822	0.049443719669
4	378915	514.493272718256	0.001292393434
4	378928	514.497781505069	0.004508786813
4	378933	514.497958880981	0.000177375912
4	378944	514.502151389097	0.004192508116
4	378975	514.517945618616	0.015794229519
4	379014	514.57429938259	0.056353763974
4	379025	514.615486246594	0.041186864004
4	379082	514.705920206181	0.090433959587
4	379109	514.720639249682	0.014719043501
4	379146	514.783555849597	0.062916599915
4	379177	514.841420083739	0.057864234142
4	379184	514.843061783284	0.001641699545
4	379191	514.845618438309	0.002556655025
4	379202	514.854131524942	0.008513086633
4	379221	514.871370418724	0.017238893782
4	379234	514.882373898391	0.011003479667
4	379239	514.883717775705	0.001343877314
4	379270	514.911218842891	0.027501067186
4	379309	514.946417100567	0.035198257676
4	379322	514.963117523477	0.01670042291
4	379331	514.964459427654	0.001341904177
4	379362	514.997846386638	0.033386958984
4	379365	514.997885618511	3.9231873e-05
4	379376	515.007305568719	0.009419950208
4	379403	515.046414909882	0.039109341163
4	379410	515.051329688519	0.004914778637
4	379453	515.178600700768	0.127271012249
4	379460	515.192251950153	0.013651249385
4	379471	515.228372545913	0.03612059576
4	379520	515.304314377398	0.075941831485
4	379533	515.307893896321	0.003579518923
4	379546	515.313094446489	0.005200550168
4	379563	515.31900189608	0.005907449591
4	379566	515.319419469649	0.000417573569
4	379573	515.322161164778	0.002741695129
4	379600	515.36573526916	0.043574104382
4	379639	515.386000643854	0.020265374694
4	379658	515.423974120023	0.037973476169
4	379661	515.425229546625	0.001255426602
4	379724	515.507316232101	0.082086685476
4	379759	515.531818163868	0.024501931767
4	379770	515.538382216552	0.006564052684
4	379837	515.645373138899	0.106990922347
4	379852	515.672695241464	0.027322102565
4	379875	515.708456363187	0.035761121723
4	379890	515.719014461775	0.010558098588
4	379943	515.80913264924	0.090118187465
4	379964	515.828388229296	0.019255580056
4	379971	515.831823582679	0.003435353383
4	379990	515.893308542164	0.061484959485
4	380001	515.900343360622	0.007034818458
4	380020	515.938954353765	0.038610993143
4	380039	515.962430098248	0.023475744483
4	380046	515.971549812013	0.009119713765
4	380061	515.987218170982	0.015668358969
4	380076	515.99863064559	0.011412474608
4	380086	516.01295243116	0.01432178557
4	380093	516.032061921685	0.019109490525
4	380112	516.04982140335	0.017759481665
4	380177	516.139853614109	0.090032210759
4	380184	516.140624317725	0.000770703616
4	380187	516.141505594421	0.000881276696
4	380190	516.142151661446	0.000646067025
4	380193	516.143110108662	0.000958447216
4	380196	516.143264090372	0.00015398171
4	380209	516.14833435576	0.005070265388
4	380228	516.213560689654	0.065226333894
4	380235	516.238183136906	0.024622447252
4	380238	516.238238158968	5.5022062e-05
4	380241	516.239498194419	0.001260035451
4	380248	516.243199238296	0.003701043877
4	380261	516.248454010849	0.005254772553
4	380294	516.272704873443	0.024250862594
4	380301	516.275222089746	0.002517216303
4	380304	516.275669475186	0.00044738544
4	380323	516.290392171178	0.014722695992
4	380342	516.304711935877	0.014319764699
4	380349	516.307426411425	0.002714475548
4	380364	516.320439926803	0.013013515378
4	380367	516.320601470399	0.000161543596
4	380398	516.360716572884	0.040115102485
4	380405	516.37429422465	0.013577651766
4	380412	516.376404356703	0.002110132053
4	380427	516.38569482979	0.009290473087
4	380454	516.441304566036	0.055609736246
4	380457	516.442467826474	0.001163260438
4	380464	516.443699956329	0.001232129855
4	380527	516.538783419802	0.095083463473
4	380546	516.598785953184	0.060002533382
4	380549	516.59949244025	0.000706487066
4	380600	516.682254168674	0.082761728424
4	380607	516.685871567844	0.00361739917
4	380614	516.705728804658	0.019857236814
4	380701	516.766420084567	0.060691279909
4	380712	516.778014676236	0.011594591669
4	380731	516.843416149612	0.065401473376
4	380738	516.844507967277	0.001091817665
4	380777	516.898354052966	0.053846085689
4	380828	516.985533822045	0.087179769079
4	380835	516.990510609641	0.004976787596
4	380840	516.991773034691	0.00126242505
4	380932	517.151845858808	0.160072824117
4	380955	517.203268083032	0.051422224224
4	380970	517.337613063369	0.134344980337
4	380977	517.340742980999	0.00312991763
4	380996	517.425051828589	0.08430884759
4	381011	517.464372007495	0.039320178906
4	381026	517.488430901228	0.024058893733
4	381065	517.655682699886	0.167251798658
4	381088	517.692892277044	0.037209577158
4	381091	517.693427815542	0.000535538498
4	381102	517.722413914192	0.02898609865
4	381113	517.731805880474	0.009391966282
4	381134	517.758867409004	0.02706152853
4	381143	517.764080831752	0.005213422748
4	381150	517.766575627474	0.002494795722
4	381159	517.772997290207	0.006421662733
4	381162	517.773578434791	0.000581144584
4	381183	517.781614975504	0.008036540713
4	381218	517.824607477893	0.042992502389
4	381233	517.871699695507	0.047092217614
4	381248	517.89215866315	0.020458967643
4	381271	517.944403105594	0.052244442444
4	381282	517.953513528639	0.009110423045
4	381289	517.955255805147	0.001742276508
4	381308	517.970773202143	0.015517396996
4	381319	517.979639665638	0.008866463495
4	381330	517.987490564941	0.007850899303
4	381335	517.990389662426	0.002899097485
4	381338	517.990440870133	5.1207707e-05
4	381380	518.011832636956	0.021391766823
4	381389	518.021288412221	0.009455775265
4	381406	518.030314142376	0.009025730155
4	381459	518.161833088169	0.131518945793
4	381468	518.171715995177	0.009882907008
4	381471	518.173419719776	0.001703724599
4	381474	518.173436823122	1.7103346e-05
4	381487	518.196355806706	0.022918983584
4	381498	518.206563865079	0.010208058373
4	381517	518.252764293583	0.046200428504
4	381548	518.274300352477	0.021536058894
4	381571	518.296712539487	0.02241218701
4	381574	518.296896226611	0.000183687124
4	381581	518.309182506971	0.01228628036
4	381588	518.330403165735	0.021220658764
4	381595	518.356857410797	0.026454245062
4	381610	518.371209057415	0.014351646618
4	381613	518.371223240107	1.4182692e-05
4	381616	518.371693831385	0.000470591278
4	381635	518.383833297023	0.012139465638
4	381674	518.422528465293	0.03869516827
4	381677	518.428199157475	0.005670692182
4	381706	518.498954853124	0.070755695649
4	381711	518.500914173743	0.001959320619
4	381718	518.503941852827	0.003027679084
4	381773	518.553188924991	0.049247072164
4	381778	518.554736194272	0.001547269281
4	381823	518.574009932123	0.019273737851
4	381830	518.580636993138	0.006627061015
4	381849	518.617450267422	0.036813274284
4	381864	518.62410744913	0.006657181708
4	381907	518.665717725491	0.041610276361
4	381910	518.665965839979	0.000248114488
4	381917	518.668881657429	0.00291581745
4	381928	518.676700522544	0.007818865115
4	381931	518.678920964712	0.002220442168
4	381938	518.681348425071	0.002427460359
4	381947	518.682985078681	0.00163665361
4	381968	518.691077167699	0.008092089018
4	381987	518.700896215071	0.009819047372
4	381992	518.702189712642	0.001293497571
4	382013	518.709616709603	0.007426996961
4	382024	518.715234166831	0.005617457228
4	382079	518.759787802553	0.044553635722
4	382082	518.76076068143	0.000972878877
4	382113	518.77669315897	0.01593247754
4	382136	518.82652877968	0.04983562071
4	382157	518.844660851266	0.018132071586
4	382162	518.844813525024	0.000152673758
4	382193	518.872776001514	0.02796247649
4	382202	518.884629945609	0.011853944095
4	382207	518.888147538955	0.003517593346
4	382214	518.88972561293	0.001578073975
4	382217	518.890856113872	0.001130500942
4	382220	518.891006940106	0.000150826234
4	382227	518.892015575481	0.001008635375
4	382234	518.893352477233	0.001336901752
4	382241	518.898257399584	0.004904922351
4	382252	518.904470536584	0.006213137
4	382263	518.91264138254	0.008170845956
4	382290	518.946760238987	0.034118856447
4	382297	518.949397595999	0.002637357012
4	382300	518.950773773985	0.001376177986
4	382327	518.966150862344	0.015377088359
4	382342	518.977085959843	0.010935097499
4	382347	518.979595372614	0.002509412771
4	382354	518.984781564872	0.005186192258
4	382367	518.99291065585	0.008129090978
4	382433	519.135168041105	0.142257385255
4	382452	519.16552390844	0.030355867335
4	382459	519.179900516525	0.014376608085
4	382470	519.217472577778	0.037572061253
4	382493	519.229898683169	0.012426105391
4	382516	519.242810069066	0.012911385897
4	382583	519.335462154548	0.092652085482
4	382586	519.335525280581	6.3126033e-05
4	382601	519.377945046421	0.04241976584
4	382604	519.378352849511	0.00040780309
4	382619	519.38888926618	0.010536416669
4	382622	519.390720414887	0.001831148707
4	382665	519.42867180066	0.037951385773
4	382692	519.438379719248	0.009707918588
4	382715	519.443919089048	0.0055393698
4	382720	519.444695200353	0.000776111305
4	382771	519.528195004569	0.083499804216
4	382780	519.535885249597	0.007690245028
4	382793	519.543884333761	0.007999084164
4	382802	519.546132537944	0.002248204183
4	382817	519.55748841971	0.011355881766
4	382852	519.588058573178	0.030570153468
4	382863	519.599841991324	0.011783418146
4	382906	519.645514666978	0.045672675654
4	382917	519.680866532424	0.035351865446
4	382924	519.694448794532	0.013582262108
4	382955	519.777857682605	0.083408888073
4	382982	519.804117307212	0.026259624607
4	382985	519.805753333128	0.001636025916
4	382996	519.830381015321	0.024627682193
4	383037	519.870915945608	0.040534930287
4	383058	519.929590097114	0.058674151506
4	383083	519.951237552951	0.021647455837
4	383160	520.126864173166	0.175626620215
4	383175	520.154412862879	0.027548689713
4	383178	520.155361892474	0.000949029595
4	383183	520.156687279406	0.001325386932
4	383188	520.157058380834	0.000371101428
4	383191	520.157489333289	0.000430952455
4	383200	520.161761122838	0.004271789549
4	383217	520.177813813863	0.016052691025
4	383242	520.191172976677	0.013359162814
4	383247	520.19263257901	0.001459602333
4	383250	520.193444697089	0.000812118079
4	383321	520.251969358684	0.058524661595
4	383352	520.280872679387	0.028903320703
4	383377	520.309018863757	0.02814618437
4	383388	520.314740739694	0.005721875937
4	383405	520.322340155032	0.007599415338
4	383418	520.3277254253	0.005385270268
4	383435	520.33860404581	0.01087862051
4	383460	520.397057986044	0.058453940234
4	383489	520.427403942753	0.030345956709
4	383496	520.439219498895	0.011815556142
4	383523	520.45389206057	0.014672561675
4	383546	520.473881602865	0.019989542295
4	383605	520.515213785969	0.041332183104
4	383624	520.55892002661	0.043706240641
4	383647	520.666689650337	0.107769623727
4	383674	520.71259285949	0.045903209153
4	383713	520.796259381567	0.083666522077
4	383716	520.796583587018	0.000324205451
4	383731	520.811068416064	0.014484829046
4	383748	520.818811050312	0.007742634248
4	383753	520.81926970077	0.000458650458
4	383792	520.851886454057	0.032616753287
4	383827	520.956399491739	0.104513037682
4	383840	520.981204425541	0.024804933802
4	383843	520.981207102364	2.676823e-06
4	383846	520.982169727628	0.000962625264
4	383849	520.983644261854	0.001474534226
4	383884	521.027262143483	0.043617881629
4	383899	521.045594447996	0.018332304513
4	383918	521.165414851379	0.119820403383
4	383973	521.246706197822	0.081291346443
4	383984	521.287370635418	0.040664437596
4	384005	521.296854973293	0.009484337875
4	384014	521.301151317026	0.004296343733
4	384021	521.30496875058	0.003817433554
4	384032	521.308974281791	0.004005531211
4	384051	521.322146272488	0.013171990697
4	384054	521.323362224874	0.001215952386
4	384057	521.323957058975	0.000594834101
4	384066	521.327590066965	0.00363300799
4	384069	521.328805891175	0.00121582421
4	384088	521.334983632117	0.006177740942
4	384101	521.342204273047	0.00722064093
4	384138	521.365188297388	0.022984024341
4	384151	521.376638601081	0.011450303693
4	384154	521.376663965639	2.5364558e-05
4	384157	521.376667530641	3.565002e-06
4	384170	521.385212645871	0.00854511523
4	384191	521.392538062043	0.007325416172
4	384206	521.397191770545	0.004653708502
4	384209	521.397445153629	0.000253383084
4	384270	521.480971404446	0.083526250817
4	384297	521.496046287942	0.015074883496
4	384314	521.515532753222	0.01948646528
4	384333	521.586148051791	0.070615298569
4	384356	521.620768441981	0.03462039019
4	384387	521.674697445279	0.053929003298
4	384396	521.679520390659	0.00482294538
4	384437	521.75931212801	0.079791737351
4	384440	521.760439142295	0.001127014285
4	384475	521.780576555971	0.020137413676
4	384490	521.802905065853	0.022328509882
4	384501	521.810953300937	0.008048235084
4	384504	521.812264797451	0.001311496514
4	384523	521.849245437972	0.036980640521
4	384530	521.859558797705	0.010313359733
4	384573	521.896229123772	0.036670326067
4	384576	521.896628535666	0.000399411894
4	384579	521.89773824885	0.001109713184
4	384582	521.899238780761	0.001500531911
4	384593	521.916967746704	0.017728965943
4	384644	521.991731238894	0.07476349219
4	384676	522.016119798376	0.024388559482
4	384697	522.041760103756	0.02564030538
4	384716	522.062049901153	0.020289797397
4	384731	522.068585630314	0.006535729161
4	384738	522.07198065755	0.003395027236
4	384743	522.072489807088	0.000509149538
4	384752	522.076294181113	0.003804374025
4	384755	522.076369833209	7.5652096e-05
4	384758	522.07702384522	0.000654012011
4	384789	522.096906375692	0.019882530472
4	384796	522.099615753689	0.002709377997
4	384835	522.183028652014	0.083412898325
4	384842	522.187199524759	0.004170872745
4	384845	522.187260427905	6.0903146e-05
4	384864	522.205698482814	0.018438054909
4	384875	522.23296903231	0.027270549496
4	384878	522.233598604486	0.000629572176
4	384901	522.254266781006	0.02066817652
4	384912	522.259846535999	0.005579754993
4	384915	522.262829896516	0.002983360517
4	384922	522.266238410809	0.003408514293
4	384949	522.292945231918	0.026706821109
4	384980	522.333571931307	0.040626699389
4	384999	522.380258307517	0.04668637621
4	385062	522.551373063524	0.171114756007
4	385081	522.596338767972	0.044965704448
4	385090	522.61530484825	0.018966080278
4	385115	522.660920336703	0.045615488453
4	385130	522.675714888821	0.014794552118
4	385173	522.756309049717	0.080594160896
4	385192	522.775136002211	0.018826952494
4	385203	522.839762642938	0.064626640727
4	385214	522.848248555103	0.008485912165
4	385288	523.062094376535	0.213845821432
4	385301	523.067187461289	0.005093084754
4	385314	523.078473554407	0.011286093118
4	385319	523.080702535438	0.002228981031
4	385336	523.094288142936	0.013585607498
4	385387	523.17271568815	0.078427545214
4	385424	523.233993520794	0.061277832644
4	385439	523.248952648875	0.014959128081
4	385468	523.259515645931	0.010562997056
4	385495	523.340231017887	0.080715371956
4	385506	523.355914096456	0.015683078569
4	385549	523.453357855112	0.097443758656
4	385560	523.460166012155	0.006808157043
4	385599	523.523961316211	0.063795304056
4	385606	523.527009773953	0.003048457742
4	385621	523.548210297404	0.021200523451
4	385632	523.568745430308	0.020535132904
4	385647	523.573779138846	0.005033708538
4	385650	523.574691501013	0.000912362167
4	385653	523.575114652618	0.000423151605
4	385678	523.590124681793	0.015010029175
4	385683	523.591869732217	0.001745050424
4	385694	523.595342813483	0.003473081266
4	385719	523.616231466974	0.020888653491
4	385722	523.617216012646	0.000984545672
4	385727	523.619125815856	0.00190980321
4	385742	523.636955470811	0.017829654955
4	385773	523.701611228801	0.06465575799
4	385788	523.712261727607	0.010650498806
4	385807	523.717059640514	0.004797912907
4	385810	523.717164822411	0.000105181897
4	385821	523.728343435433	0.011178613022
4	385832	523.732772020806	0.004428585373
4	385871	523.836432804386	0.10366078358
4	385886	523.859562129637	0.023129325251
4	385905	523.882379379065	0.022817249428
4	385916	523.888708673872	0.006329294807
4	385919	523.889657434002	0.00094876013
4	385946	523.96438384715	0.074726413148
4	385964	524.003985761866	0.039601914716
4	385971	524.069053990795	0.065068228929
4	385990	524.100158703807	0.031104713012
4	386005	524.110596589833	0.010437886026
4	386012	524.171424004939	0.060827415106
4	386049	524.201309228243	0.029885223304
4	386150	524.367546925827	0.166237697584
4	386201	524.483617463843	0.116070538016
4	386204	524.485707307696	0.002089843853
4	386211	524.529354035704	0.043646728008
4	386236	524.582789803021	0.053435767317
4	386247	524.591606756002	0.008816952981
4	386256	524.595221600995	0.003614844993
4	386259	524.59608515731	0.000863556315
4	386262	524.59637250819	0.00028735088
4	386293	524.636161350023	0.039788841833
4	386304	524.638028604916	0.001867254893
4	386327	524.653160887765	0.015132282849
4	386362	524.691462320975	0.03830143321
4	386365	524.691738906727	0.000276585752
4	386368	524.693630487246	0.001891580519
4	386387	524.697003169707	0.003372682461
4	386422	524.712872047674	0.015868877967
4	386449	524.742531731407	0.029659683733
4	386464	524.752296964935	0.009765233528
4	386479	524.759328726169	0.007031761234
4	386482	524.761178840887	0.001850114718
4	386517	524.805127905991	0.043949065104
4	386572	524.940979711337	0.135851805346
4	386583	524.946967339569	0.005987628232
4	386618	525.009744083386	0.062776743817
4	386629	525.020221932455	0.010477849069
4	386640	525.028072159845	0.00785022739
4	386667	525.125235363945	0.0971632041
4	386680	525.127101811632	0.001866447687
4	386689	525.131717363886	0.004615552254
4	386692	525.131843875766	0.00012651188
4	386699	525.137964492289	0.006120616523
4	386714	525.148284466802	0.010319974513
4	386733	525.168094067465	0.019809600663
4	386742	525.171516709453	0.003422641988
4	386803	525.245811236689	0.074294527236
4	386810	525.247860187745	0.002048951056
4	386817	525.255634025406	0.007773837661
4	386824	525.264644836316	0.00901081091
4	386835	525.278682614444	0.014037778128
4	386838	525.279275448725	0.000592834281
4	386845	525.287916582429	0.008641133704
4	386864	525.335469743459	0.04755316103
4	386879	525.341415849254	0.005946105795
4	386882	525.341602509743	0.000186660489
4	386905	525.356648652726	0.015046142983
4	386968	525.418304093448	0.061655440722
4	386971	525.418840977511	0.000536884063
4	386974	525.42184898323	0.003008005719
4	386985	525.426356116483	0.004507133253
4	387016	525.476321324753	0.04996520827
4	387019	525.4766502375	0.000328912747
4	387050	525.498750309589	0.022100072089
4	387081	525.533284127009	0.03453381742
4	387088	525.535263329176	0.001979202167
4	387127	525.565215454278	0.029952125102
4	387170	525.595123223003	0.029907768725
4	387199	525.614578795378	0.019455572375
4	387206	525.615431745082	0.000852949704
4	387243	525.752904359184	0.137472614102
4	387246	525.755083436148	0.002179076964
4	387265	525.805424701126	0.050341264978
4	387276	525.826058793504	0.020634092378
4	387279	525.829798257055	0.003739463551
4	387282	525.830307237986	0.000508980931
4	387293	525.839255208573	0.008947970587
4	387308	525.848178940733	0.00892373216
4	387430	526.013901196653	0.16572225592
4	387495	526.154638413653	0.140737217
4	387512	526.166168379164	0.011529965511
4	387561	526.198330810382	0.032162431218
4	387602	526.216692099351	0.018361288969
4	387605	526.217280787572	0.000588688221
4	387624	526.233931900803	0.016651113231
4	387627	526.236137548128	0.002205647325
4	387630	526.236932668501	0.000795120373
4	387701	526.382069012246	0.145136343745
4	387704	526.383028554218	0.000959541972
4	387707	526.384109168659	0.001080614441
4	387722	526.391397603115	0.007288434456
4	387777	526.445282660155	0.05388505704
4	387808	526.46060629996	0.015323639805
4	387887	526.591232612786	0.130626312826
4	387906	526.608486647016	0.01725403423
4	387921	526.641523184634	0.033036537618
4	387936	526.650241669513	0.008718484879
4	387947	526.663102033961	0.012860364448
4	387950	526.663246913494	0.000144879533
4	387961	526.669757117295	0.006510203801
4	387976	526.679429526512	0.009672409217
4	387987	526.696335618583	0.016906092071
4	388002	526.729493290613	0.03315767203
4	388019	526.748276917499	0.018783626886
4	388048	526.895146946992	0.146870029493
4	388071	526.90618371033	0.011036763338
4	388110	526.946582015264	0.040398304934
4	388156	527.01318478313	0.066602767866
4	388159	527.013331768146	0.000146985016
4	388178	527.028298786891	0.014967018745
4	388189	527.033647261836	0.005348474945
4	388212	527.056096981978	0.022449720142
4	388215	527.059039185013	0.002942203035
4	388234	527.084786208784	0.025747023771
4	388237	527.085552004958	0.000765796174
4	388248	527.09963911999	0.014087115032
4	388251	527.101934089618	0.002294969628
4	388262	527.116910792497	0.014976702879
4	388273	527.125453662982	0.008542870485
4	388300	527.161662052029	0.036208389047
4	388307	527.164035799293	0.002373747264
4	388314	527.165787279414	0.001751480121
4	388345	527.224057868077	0.058270588663
4	388364	527.321117322073	0.097059453996
4	388367	527.321435026055	0.000317703982
4	388442	527.56386395513	0.242428929075
4	388449	527.565225753768	0.001361798638
4	388466	527.641245016644	0.076019262876
4	388479	527.649926479302	0.008681462658
4	388520	527.669101570184	0.019175090882
4	388535	527.675695182072	0.006593611888
4	388580	527.710370725913	0.034675543841
4	388613	527.767616678918	0.057245953005
4	388666	527.851814131604	0.084197452686
4	388669	527.852018312406	0.000204180802
4	388696	527.918895791795	0.066877479389
4	388699	527.919307727845	0.00041193605
4	388730	527.945359156944	0.026051429099
4	388741	527.9529968979	0.007637740956
4	388760	527.9629419551	0.0099450572
4	388770	528.001948622261	0.039006667161
4	388787	528.010493504386	0.008544882125
4	388800	528.01731716198	0.006823657594
4	388811	528.028942608179	0.011625446199
4	388850	528.0974195962	0.068476988021
4	388853	528.097707194214	0.000287598014
4	388868	528.149064767966	0.051357573752
4	388881	528.155233566044	0.006168798078
4	388884	528.155941061201	0.000707495157
4	388889	528.157596277345	0.001655216144
4	388924	528.204971818663	0.047375541318
4	388951	528.270419365974	0.065447547311
4	388980	528.293778910791	0.023359544817
4	388985	528.29656313762	0.002784226829
4	389016	528.372694429719	0.076131292099
4	389043	528.411187365359	0.03849293564
4	389046	528.411823973738	0.000636608379
4	389069	528.436793680847	0.024969707109
4	389100	528.464284578785	0.027490897938
4	389115	528.474513676151	0.010229097366
4	389130	528.478936344841	0.00442266869
4	389149	528.523133033166	0.044196688325
4	389156	528.527365350648	0.004232317482
4	389207	528.612323737379	0.084958386731
4	389214	528.630209150622	0.017885413243
4	389247	528.649416776704	0.019207626082
4	389290	528.681531567304	0.0321147906
4	389335	528.701184634265	0.019653066961
4	389346	528.711255372329	0.010070738064
4	389361	528.731536069221	0.020280696892
4	389364	528.731585962861	4.989364e-05
4	389367	528.732280026394	0.000694063533
4	389386	528.741066770062	0.008786743668
4	389397	528.818915717324	0.077848947262
4	389452	528.871919902612	0.053004185288
4	389455	528.873391815778	0.001471913166
4	389466	528.892151713683	0.018759897905
4	389485	528.923200253648	0.031048539965
4	389492	528.935197549854	0.011997296206
4	389511	528.946756536446	0.011558986592
4	389553	529.006629892516	0.05987335607
4	389576	529.051990044786	0.04536015227
4	389609	529.071303674572	0.019313629786
4	389630	529.101279837662	0.02997616309
4	389649	529.129707851153	0.028428013491
4	389676	529.150863635683	0.02115578453
4	389711	529.178020294706	0.027156659023
4	389718	529.179618794298	0.001598499592
4	389741	529.187389038589	0.007770244291
4	389746	529.188236229559	0.00084719097
4	389753	529.189766046348	0.001529816789
4	389766	529.19517242704	0.005406380692
4	389805	529.261835004616	0.066662577576
4	389816	529.268741027117	0.006906022501
4	389825	529.271617726567	0.00287669945
4	389834	529.30692940943	0.035311682863
4	389869	529.374593578914	0.067664169484
4	389888	529.387987683762	0.013394104848
4	389891	529.390980359063	0.002992675301
4	389912	529.428198538706	0.037218179643
4	389933	529.456826353015	0.028627814309
4	389972	529.564326832645	0.10750047963
4	389987	529.577688213395	0.01336138075
4	390038	529.645708050401	0.068019837006
4	390045	529.646376117924	0.000668067523
4	390068	529.685423223426	0.039047105502
4	390083	529.698452631267	0.013029407841
4	390102	529.70789531565	0.009442684383
4	390113	529.712952955215	0.005057639565
4	390124	529.724795457716	0.011842502501
4	390127	529.725515958117	0.000720500401
4	390138	529.748104382313	0.022588424196
4	390153	529.776938272422	0.028833890109
4	390168	529.789041957563	0.012103685141
4	390171	529.789325588901	0.000283631338
4	390174	529.789843128188	0.000517539287
4	390223	529.866700219623	0.076857091435
4	390234	529.870135261933	0.00343504231
4	390243	529.883591001347	0.013455739414
4	390266	529.900230802169	0.016639800822
4	390285	529.945960074133	0.045729271964
4	390304	529.96185779493	0.015897720797
4	390315	529.985966801116	0.024109006186
4	390354	530.050857638027	0.064890836911
4	390357	530.05217025845	0.001312620423
4	390398	530.11175143194	0.05958117349
4	390439	530.141792531696	0.030041099756
4	390450	530.151340539996	0.0095480083
4	390481	530.167529444961	0.016188904965
4	390484	530.169205800399	0.001676355438
4	390511	530.190306451328	0.021100650929
4	390522	530.192866147677	0.002559696349
4	390529	530.203722983119	0.010856835442
4	390546	530.21147005974	0.007747076621
4	390553	530.214720521941	0.003250462201
4	390556	530.215003067396	0.000282545455
4	390559	530.215550039468	0.000546972072
4	390572	530.226893414464	0.011343374996
4	390583	530.229741586518	0.002848172054
4	390674	530.381601257702	0.151859671184
4	390685	530.403479533104	0.021878275402
4	390688	530.403779275144	0.00029974204
4	390699	530.434535571865	0.030756296721
4	390714	530.462934067228	0.028398495363
4	390721	530.471880168785	0.008946101557
4	390750	530.510154553012	0.038274384227
4	390771	530.542577421804	0.032422868792
4	390790	530.566570325519	0.023992903715
4	390799	530.572517873783	0.005947548264
4	390828	530.634306619179	0.061788745396
4	390835	530.63833839386	0.004031774681
4	390882	530.66332793501	0.02498954115
4	390885	530.663622301798	0.000294366788
4	390914	530.694201130574	0.030578828776
4	390917	530.69450568373	0.000304553156
4	390922	530.694633087821	0.000127404091
4	390925	530.695424732926	0.000791645105
4	390944	530.739151969811	0.043727236885
4	390995	530.791121371894	0.051969402083
4	391004	530.797793898467	0.006672526573
4	391049	530.849993942986	0.052200044519
4	391060	530.868614111302	0.018620168316
4	391095	530.920981791898	0.052367680596
4	391148	531.054973736269	0.133991944371
4	391167	531.067124973023	0.012151236754
4	391174	531.070373767682	0.003248794659
4	391193	531.079309923605	0.008936155923
4	391200	531.084765354476	0.005455430871
4	391207	531.096190984864	0.011425630388
4	391250	531.20992862522	0.113737640356
4	391281	531.238334164511	0.028405539291
4	391284	531.238745291375	0.000411126864
4	391299	531.264205312105	0.02546002073
4	391322	531.294746677074	0.030541364969
4	391325	531.295479562837	0.000732885763
4	391336	531.303069645292	0.007590082455
4	391343	531.307369704984	0.004300059692
4	391354	531.322415925492	0.015046220508
4	391365	531.335822672832	0.01340674734
4	391368	531.336006887485	0.000184214653
4	391391	531.359284228114	0.023277340629
4	391398	531.3755612205	0.016276992386
4	391405	531.378972496218	0.003411275718
4	391470	531.458611084112	0.079638587894
4	391505	531.485286173032	0.02667508892
4	391526	531.499801133657	0.014514960625
4	391529	531.500042421249	0.000241287592
4	391596	531.60180928519	0.101766863941
4	391611	531.657124024681	0.055314739491
4	391614	531.660603538722	0.003479514041
4	391651	531.677001985341	0.016398446619
4	391736	531.743071042375	0.066069057034
4	391771	531.788447475751	0.045376433376
4	391782	531.818496108672	0.030048632921
4	391817	531.842588165624	0.024092056952
4	391856	531.902160155959	0.059571990335
4	391922	532.11007024214	0.207910086181
4	391929	532.113606018753	0.003535776613
4	391960	532.151691819536	0.038085800783
4	391973	532.156366590133	0.004674770597
4	392006	532.170598043973	0.01423145384
4	392017	532.181281556615	0.010683512642
4	392024	532.182033122178	0.000751565563
4	392043	532.20033372792	0.018300605742
4	392056	532.211783572057	0.011449844137
4	392079	532.219788216694	0.008004644637
4	392088	532.225680710105	0.005892493411
4	392107	532.238864331739	0.013183621634
4	392134	532.261526003956	0.022661672217
4	392137	532.261544245146	1.824119e-05
4	392144	532.263063986459	0.001519741313
4	392195	532.359644829891	0.096580843432
4	392200	532.360837716874	0.001192886983
4	392233	532.400729903663	0.039892186789
4	392252	532.422331733901	0.021601830238
4	392255	532.423442028582	0.001110294681
4	392262	532.424905545861	0.001463517279
4	392281	532.452139463989	0.027233918128
4	392304	532.495315381487	0.043175917498
4	392355	532.526992911981	0.031677530494
4	392358	532.527347958198	0.000355046217
4	392361	532.529218160871	0.001870202673
4	392392	532.589010041054	0.059791880183
4	392399	532.589908143736	0.000898102682
4	392444	532.615120782934	0.025212639198
4	392461	532.624434615189	0.009313832255
4	392464	532.624738985342	0.000304370153
4	392467	532.625929359439	0.001190374097
4	392496	532.664125646423	0.038196286984
4	392517	532.72626750101	0.062141854587
4	392532	532.744178121762	0.017910620752
4	392539	532.74954689913	0.005368777368
4	392566	532.771612075042	0.022065175912
4	392641	532.929340355917	0.157728280875
4	392644	532.929933485342	0.000593129425
4	392655	532.934406412885	0.004472927543
4	392662	532.941315729183	0.006909316298
4	392681	532.968902101367	0.027586372184
4	392684	532.969520668571	0.000618567204
4	392691	532.981592700289	0.012072031718
4	392709	533.000031989899	0.01843928961
4	392718	533.000915781193	0.000883791294
4	392727	533.003685107997	0.002769326804
4	392738	533.010593108218	0.006908000221
4	392757	533.026915766257	0.016322658039
4	392764	533.029226890685	0.002311124428
4	392785	533.036189352565	0.00696246188
4	392818	533.073971998466	0.037782645901
4	392829	533.116505862941	0.042533864475
4	392844	533.140945525492	0.024439662551
4	392859	533.147486762285	0.006541236793
4	392898	533.194041152995	0.04655439071
4	392917	533.253706013268	0.059664860273
4	392936	533.270267447494	0.016561434226
4	392939	533.270764518508	0.000497071014
4	392950	533.277925797321	0.007161278813
4	392957	533.284479446615	0.006553649294
4	392988	533.331126199098	0.046646752483
4	393007	533.343118424808	0.01199222571
4	393026	533.372010407661	0.028891982853
4	393045	533.38628592495	0.014275517289
4	393060	533.405190662131	0.018904737181
4	393067	533.412350726298	0.007160064167
4	393070	533.412643814551	0.000293088253
4	393073	533.412916344282	0.000272529731
4	393084	533.441473477614	0.028557133332
4	393095	533.490526576192	0.049053098578
4	393114	533.520081039904	0.029554463712
4	393125	533.55202114475	0.031940104846
4	393136	533.562920155162	0.010899010412
4	393145	533.568481304068	0.005561148906
4	393202	533.665949306006	0.097468001938
4	393253	533.718395056598	0.052445750592
4	393264	533.721071264377	0.002676207779
4	393279	533.73231250517	0.011241240793
4	393338	533.845191967443	0.112879462273
4	393345	533.849402758698	0.004210791255
4	393356	533.867786886171	0.018384127473
4	393407	533.90322464746	0.035437761289
4	393414	533.905702121166	0.002477473706
4	393536	534.020082640444	0.114380519278
4	393539	534.021548484839	0.001465844395
4	393594	534.089226240156	0.067677755317
4	393629	534.143441685195	0.054215445039
4	393632	534.143840585284	0.000398900089
4	393639	534.149255934753	0.005415349469
4	393650	534.153438165725	0.004182230972
4	393665	534.170091030058	0.016652864333
4	393670	534.17257224934	0.002481219282
4	393679	534.214735700279	0.042163450939
4	393710	534.299338446776	0.084602746497
4	393729	534.324081486114	0.024743039338
4	393736	534.331585160379	0.007503674265
4	393747	534.343249818487	0.011664658108
4	393750	534.34514223372	0.001892415233
4	393765	534.358001204248	0.012858970528
4	393772	534.3639059975	0.005904793252
4	393779	534.367955841336	0.004049843836
4	393790	534.369056077902	0.001100236566
4	393829	534.448552402988	0.079496325086
4	393844	534.465745151594	0.017192748606
4	393847	534.466939715467	0.001194563873
4	393870	534.498490417089	0.031550701622
4	393877	534.50263350984	0.004143092751
4	393896	534.511217881315	0.008584371475
4	393903	534.512591512535	0.00137363122
4	393930	534.541968969891	0.029377457356
4	393985	534.697671564586	0.155702594695
4	394016	534.741389517639	0.043717953053
4	394027	534.747209427599	0.00581990996
4	394034	534.761245555472	0.014036127873
4	394041	534.767039111805	0.005793556333
4	394044	534.767659998091	0.000620886286
4	394061	534.795700123105	0.028040125014
4	394064	534.796756796808	0.001056673703
4	394077	534.809463127427	0.012706330619
4	394100	534.874233645571	0.064770518144
4	394115	534.912316554576	0.038082909005
4	394118	534.912713955011	0.000397400435
4	394121	534.917411734422	0.004697779411
4	394140	534.984079125044	0.066667390622
4	394147	534.992128107757	0.008048982713
4	394190	535.021965900732	0.029837792975
4	394193	535.022078442643	0.000112541911
4	394228	535.073651564017	0.051573121374
4	394259	535.147300946527	0.07364938251
4	394278	535.158894061865	0.011593115338
4	394297	535.187805505718	0.028911443853
4	394302	535.189479829117	0.001674323399
4	394311	535.194122864307	0.00464303519
4	394314	535.194910224286	0.000787359979
4	394325	535.200550105196	0.00563988091
4	394328	535.200665107271	0.000115002075
4	394371	535.246372074604	0.045706967333
4	394398	535.281699125216	0.035327050612
4	394409	535.304368225122	0.022669099906
4	394416	535.317001874594	0.012633649472
4	394423	535.331602400494	0.0146005259
4	394430	535.333345194459	0.001742793965
4	394445	535.3534124092	0.020067214741
4	394460	535.404391142337	0.050978733137
4	394463	535.404568555473	0.000177413136
4	394466	535.408236298787	0.003667743314
4	394517	535.492154704622	0.083918405835
4	394524	535.49873639534	0.006581690718
4	394527	535.500715026641	0.001978631301
4	394530	535.502621394118	0.001906367477
4	394557	535.519119609598	0.01649821548
4	394572	535.52665402703	0.007534417432
4	394591	535.576041803417	0.049387776387
4	394598	535.584443327555	0.008401524138
4	394605	535.594593239101	0.010149911546
4	394620	535.612821099439	0.018227860338
4	394643	535.644642259226	0.031821159787
4	394650	535.648764620735	0.004122361509
4	394663	535.653938298184	0.005173677449
4	394672	535.655768894652	0.001830596468
4	394683	535.698268171748	0.042499277096
4	394702	535.729257600624	0.030989428876
4	394713	535.736321212146	0.007063611522
4	394724	535.742921209304	0.006599997158
4	394791	535.889209389851	0.146288180547
4	394794	535.890259093885	0.001049704034
4	394801	535.89686478851	0.006605694625
4	394808	535.920984586784	0.024119798274
4	394811	535.923200378749	0.002215791965
4	394897	536.048613131994	0.125412753245
4	394916	536.087758369306	0.039145237312
4	394919	536.088418417134	0.000660047828
4	394930	536.136327525611	0.047909108477
4	394961	536.207906347734	0.071578822123
4	394992	536.237032121576	0.029125773842
4	394999	536.238635545769	0.001603424193
4	395018	536.257363240724	0.018727694955
4	395025	536.265272713941	0.007909473217
4	395052	536.302955398137	0.037682684196
4	395055	536.304824194507	0.00186879637
4	395062	536.306445095781	0.001620901274
4	395101	536.37888763708	0.072442541299
4	395104	536.38034857046	0.00146093338
4	395107	536.384794859168	0.004446288708
4	395136	536.421854029191	0.037059170023
4	395139	536.421899069653	4.5040462e-05
4	395160	536.430322669124	0.008423599471
4	395163	536.43093972437	0.000617055246
4	395172	536.434172268133	0.003232543763
4	395177	536.437083092668	0.002910824535
4	395182	536.438104354542	0.001021261874
4	395207	536.46831401422	0.030209659678
4	395218	536.474689289514	0.006375275294
4	395237	536.536855931577	0.062166642063
4	395256	536.562363249008	0.025507317431
4	395259	536.562449895995	8.6646987e-05
4	395314	536.669882551316	0.107432655321
4	395317	536.670382994897	0.000500443581
4	395320	536.671340772251	0.000957777354
4	395323	536.67161511713	0.000274344879
4	395326	536.672255205333	0.000640088203
4	395345	536.699527413481	0.027272208148
4	395404	536.743980634587	0.044453221106
4	395407	536.745777204879	0.001796570292
4	395434	536.760410181533	0.014632976654
4	395437	536.76122590561	0.000815724077
4	395452	536.78841850968	0.02719260407
4	395479	536.858909273697	0.070490764017
4	395526	536.914091917873	0.055182644176
4	395529	536.914267174559	0.000175256686
4	395534	536.915503913106	0.001236738547
4	395555	536.964301110845	0.048797197739
4	395582	536.9760792886	0.011778177755
4	395617	536.999855177999	0.023775889399
4	395631	537.003102814773	0.003247636774
4	395672	537.045783817058	0.042681002285
4	395675	537.045835390563	5.1573505e-05
4	395678	537.046979905713	0.00114451515
4	395695	537.085084418191	0.038104512478
4	395724	537.105708592981	0.02062417479
4	395729	537.106548100822	0.000839507841
4	395734	537.107742821591	0.001194720769
4	395751	537.162701847522	0.054959025931
4	395774	537.181462094352	0.01876024683
4	395777	537.181479118454	1.7024102e-05
4	395780	537.181543767269	6.4648815e-05
4	395783	537.184621516671	0.003077749402
4	395802	537.199141913233	0.014520396562
4	395807	537.201860914509	0.002719001276
4	395878	537.246995528176	0.045134613667
4	395881	537.247744476824	0.000748948648
4	395884	537.248805310904	0.00106083408
4	395897	537.252655535252	0.003850224348
4	395908	537.260659151279	0.008003616027
4	395913	537.260952562625	0.000293411346
4	395950	537.30258924201	0.041636679385
4	395953	537.304529782176	0.001940540166
4	395960	537.31506129586	0.010531513684
4	395983	537.33847315257	0.02341185671
4	395986	537.339433568247	0.000960415677
4	396001	537.350223628439	0.010790060192
4	396004	537.350575219665	0.000351591226
4	396091	537.494420815134	0.143845595469
4	396100	537.496886470855	0.002465655721
4	396105	537.497247212576	0.000360741721
4	396128	537.525711643515	0.028464430939
4	396157	537.608172070546	0.082460427031
4	396166	537.611990673401	0.003818602855
4	396169	537.612852989636	0.000862316235
4	396192	537.62442680567	0.011573816034
4	396207	537.628607404184	0.004180598514
4	396226	537.642005667745	0.013398263561
4	396229	537.642214493598	0.000208825853
4	396236	537.64762958444	0.005415090842
4	396255	537.658453304219	0.010823719779
4	396286	537.683233172838	0.024779868619
4	396289	537.683296407236	6.3234398e-05
4	396300	537.685496530096	0.00220012286
4	396305	537.686978329166	0.00148179907
4	396308	537.687145579413	0.000167250247
4	396337	537.718586675573	0.03144109616
4	396340	537.72149950757	0.002912831997
4	396357	537.733934767349	0.012435259779
4	396378	537.819924594791	0.085989827442
4	396421	537.882157645038	0.062233050247
4	396444	537.890984539057	0.008826894019
4	396447	537.89228366516	0.001299126103
4	396472	537.899915015546	0.007631350386
4	396521	537.944986184768	0.045071169222
4	396599	538.000977612503	0.055991427735
4	396608	538.040649344281	0.039671731778
4	396619	538.066605762974	0.025956418693
4	396624	538.068992250501	0.002386487527
4	396643	538.103373981355	0.034381730854
4	396698	538.155599304591	0.052225323236
4	396713	538.180263671045	0.024664366454
4	396744	538.224657654019	0.044393982974
4	396759	538.236589743453	0.011932089434
4	396798	538.255232952304	0.018643208851
4	396805	538.258468310571	0.003235358267
4	396840	538.334381916987	0.075913606416
4	396843	538.334986361924	0.000604444937
4	396882	538.378455392126	0.043469030202
4	396913	538.406529953547	0.028074561421
4	396916	538.407231767014	0.000701813467
4	396931	538.415544207685	0.008312440671
4	396942	538.418277342458	0.002733134773
4	396957	538.430988322686	0.012710980228
4	396962	538.432788367808	0.001800045122
4	397011	538.485346787335	0.052558419527
4	397014	538.485711427812	0.000364640477
4	397029	538.503746780789	0.018035352977
4	397072	538.602249813572	0.098503032783
4	397075	538.603207801567	0.000957987995
4	397078	538.603357188023	0.000149386456
4	397127	538.625925313751	0.022568125728
4	397132	538.629007739166	0.003082425415
4	397151	538.656572529281	0.027564790115
4	397166	538.68171444822	0.025141918939
4	397197	538.704117235825	0.022402787605
4	397248	538.732776866481	0.028659630656
4	397267	538.766103468842	0.033326602361
4	397284	538.802045312995	0.035941844153
4	397287	538.802068946414	2.3633419e-05
4	397300	538.855937727708	0.053868781294
4	397303	538.856438907066	0.000501179358
4	397342	538.899268851298	0.042829944232
4	397397	538.984563309319	0.085294458021
4	397400	538.985350947696	0.000787638377
4	397426	539.012585649088	0.027234701392
4	397505	539.132356698133	0.119771049045
4	397544	539.222801802358	0.090445104225
4	397567	539.234744772919	0.011942970561
4	397582	539.258294630517	0.023549857598
4	397585	539.258657961982	0.000363331465
4	397596	539.270302997939	0.011645035957
4	397615	539.278986841613	0.008683843674
4	397634	539.334007558317	0.055020716704
4	397661	539.375523484816	0.041515926499
4	397676	539.382021653415	0.006498168599
4	397683	539.383662957851	0.001641304436
4	397714	539.414419292433	0.030756334582
4	397749	539.475837107475	0.061417815042
4	397800	539.53367952947	0.057842421995
4	397847	539.580737838064	0.047058308594
4	397854	539.584046175637	0.003308337573
4	397865	539.658953388412	0.074907212775
4	397868	539.659386398359	0.000433009947
4	397871	539.659467753753	8.1355394e-05
4	397898	539.730780663699	0.071312909946
4	397913	539.751506149679	0.02072548598
4	397924	539.758684368585	0.007178218906
4	397939	539.790564511969	0.031880143384
4	397954	539.798976653039	0.00841214107
4	397981	539.854939923444	0.055963270405
4	397992	539.888191768407	0.033251844963
4	398027	539.934058041063	0.045866272656
4	398050	539.954915382279	0.020857341216
4	398071	539.999454432243	0.044539049964
4	398100	540.019202826816	0.019748394573
4	398119	540.052339204265	0.033136377449
4	398182	540.132882053018	0.080542848753
4	398193	540.137440062596	0.004558009578
4	398204	540.166064048825	0.028623986229
4	398215	540.176799610979	0.010735562154
4	398234	540.201241013357	0.024441402378
4	398253	540.229245852246	0.028004838889
4	398312	540.282842788505	0.053596936259
4	398327	540.312585901155	0.02974311265
4	398382	540.440600429005	0.12801452785
4	398413	540.471572235383	0.030971806378
4	398444	540.512548088617	0.040975853234
4	398479	540.578846631498	0.066298542881
4	398482	540.579508797042	0.000662165544
4	398505	540.599959607196	0.020450810154
4	398542	540.649465680477	0.049506073281
4	398559	540.742248183629	0.092782503152
4	398566	540.745966899169	0.00371871554
4	398569	540.746441216302	0.000474317133
4	398624	540.775510727797	0.029069511495
4	398679	540.908448042098	0.132937314301
4	398688	540.923827244356	0.015379202258
4	398697	540.927607419947	0.003780175591
4	398740	540.94993464635	0.022327226403
4	398793	541.013565982083	0.063631335733
4	398800	541.01891177797	0.005345795887
4	398807	541.033578171506	0.014666393536
4	398834	541.081581396212	0.048003224706
4	398841	541.084591192759	0.003009796547
4	398864	541.116100310285	0.031509117526
4	398869	541.116343586371	0.000243276086
4	398874	541.117927902786	0.001584316415
4	398893	541.131667499968	0.013739597182
4	398916	541.163279132431	0.031611632463
4	398979	541.25129750602	0.088018373589
4	398986	541.258880634417	0.007583128397
4	398989	541.258932175777	5.154136e-05
4	398992	541.259400897487	0.00046872171
4	398999	541.262471502331	0.003070604844
4	399022	541.304328793454	0.041857291123
4	399053	541.323707163217	0.019378369763
4	399068	541.344626198624	0.020919035407
4	399087	541.36806174512	0.023435546496
4	399150	541.491203415994	0.123141670874
4	399169	541.556391517795	0.065188101801
4	399172	541.556625408784	0.000233890989
4	399175	541.557947818465	0.001322409681
4	399202	541.63634968155	0.078401863085
4	399209	541.638439144851	0.002089463301
4	399220	541.683772247428	0.045333102577
4	399223	541.683823646778	5.139935e-05
4	399238	541.711372274681	0.027548627903
4	399265	541.739809936942	0.028437662261
4	399284	541.758616717029	0.018806780087
4	399287	541.759102760997	0.000486043968
4	399294	541.76201033915	0.002907578153
4	399335	541.826674238371	0.064663899221
4	399360	541.837502727766	0.010828489395
4	399379	541.85621082976	0.018708101994
4	399394	541.872077403086	0.015866573326
4	399415	541.881988910005	0.009911506919
4	399444	541.902041569862	0.020052659857
4	399455	541.905804637066	0.003763067204
4	399462	541.91020410002	0.004399462954
4	399477	541.948116276348	0.037912176328
4	399480	541.948236661974	0.000120385626
4	399491	541.974426071102	0.026189409128
4	399514	541.995236330524	0.020810259422
4	399536	542.012799807122	0.017563476598
4	399557	542.029698605471	0.016898798349
4	399560	542.034463478293	0.004764872822
4	399569	542.041333127177	0.006869648884
4	399584	542.062254672618	0.020921545441
4	399627	542.167222045786	0.104967373168
4	399630	542.167432125211	0.000210079425
4	399689	542.414940591024	0.247508465813
4	399712	542.468212164415	0.053271573391
4	399717	542.471308339774	0.003096175359
4	399746	542.504438971153	0.033130631379
4	399755	542.509137565199	0.004698594046
4	399764	542.515025813435	0.005888248236
4	399771	542.521724246393	0.006698432958
4	399798	542.53633787647	0.014613630077
4	399801	542.537151377946	0.000813501476
4	399808	542.544177463549	0.007026085603
4	399823	542.6037909772	0.059613513651
4	399854	542.625168368425	0.021377391225
4	399865	542.666538244233	0.041369875808
4	399884	542.751894283413	0.08535603918
4	399891	542.765486761458	0.013592478045
4	399936	542.789979702503	0.024492941045
4	399973	542.813651731095	0.023672028592
4	399976	542.813967891221	0.000316160126
4	400011	542.847482077492	0.033514186271
4	400058	542.898999254906	0.051517177414
4	400097	542.967387944343	0.068388689437
4	400112	542.98684462279	0.019456678447
4	400123	542.997695963805	0.010851341015
4	400149	543.043066755672	0.045370791867
4	400152	543.044420331944	0.001353576272
4	400165	543.050598783545	0.006178451601
4	400194	543.162291875488	0.111693091943
4	400209	543.204389166282	0.042097290794
4	400220	543.212343943079	0.007954776797
4	400301	543.459792854643	0.247448911564
4	400308	543.46257646868	0.002783614037
4	400313	543.464220696701	0.001644228021
4	400332	543.483964855425	0.019744158724
4	400359	543.501042859167	0.017078003742
4	400402	543.553686962773	0.052644103606
4	400409	543.555243548309	0.001556585536
4	400420	543.5579688101	0.002725261791
4	400427	543.55955421094	0.00158540084
4	400434	543.575479220745	0.015925009805
4	400445	543.627861989127	0.052382768382
4	400464	543.639733746227	0.0118717571
4	400471	543.687877061707	0.04814331548
4	400478	543.689740847026	0.001863785319
4	400503	543.713263017654	0.023522170628
4	400520	543.733503252966	0.020240235312
4	400523	543.734826395662	0.001323142696
4	400542	543.741060431373	0.006234035711
4	400553	543.745478497328	0.004418065955
4	400580	543.772929747132	0.027451249804
4	400587	543.778220336764	0.005290589632
4	400610	543.795864625804	0.01764428904
4	400613	543.796962331507	0.001097705703
4	400616	543.801553854346	0.004591522839
4	400639	543.811670354477	0.010116500131
4	400654	543.816654263288	0.004983908811
4	400657	543.818453821235	0.001799557947
4	400700	543.867993231054	0.049539409819
4	400703	543.868170928584	0.00017769753
4	400769	544.02921850629	0.161047577706
4	400772	544.031228389152	0.002009882862
4	400855	544.098922450815	0.067694061663
4	400866	544.170408302179	0.071485851364
4	400895	544.204125666911	0.033717364732
4	400908	544.213247308593	0.009121641682
4	400923	544.221677983845	0.008430675252
4	400930	544.229351099758	0.007673115913
4	400935	544.230367807026	0.001016707268
4	400948	544.236798416751	0.006430609725
4	400953	544.238758907771	0.00196049102
4	400982	544.291919305534	0.053160397763
4	401013	544.350337864047	0.058418558513
4	401016	544.351410931938	0.001073067891
4	401019	544.352171478699	0.000760546761
4	401022	544.354483563988	0.002312085289
4	401039	544.418932975449	0.064449411461
4	401048	544.423332140521	0.004399165072
4	401063	544.442310968168	0.018978827647
4	401070	544.445197685948	0.00288671778
4	401081	544.473371535628	0.02817384968
4	401098	544.521464119288	0.04809258366
4	401147	544.562384650294	0.040920531006
4	401150	544.564055599696	0.001670949402
4	401169	544.618366285935	0.054310686239
4	401176	544.621954359006	0.003588073071
4	401179	544.62210670026	0.000152341254
4	401186	544.624363142653	0.002256442393
4	401205	544.647446815609	0.023083672956
4	401234	544.679366209002	0.031919393393
4	401239	544.68104698372	0.001680774718
4	401270	544.718706040812	0.037659057092
4	401285	544.730242425539	0.011536384727
4	401312	544.808126841324	0.077884415785
4	401315	544.808194514153	6.7672829e-05
4	401322	544.809333278805	0.001138764652
4	401331	544.8139792028	0.004645923995
4	401334	544.81490787274	0.00092866994
4	401337	544.814964504099	5.6631359e-05
4	401354	544.873495009837	0.058530505738
4	401365	544.904255523514	0.030760513677
4	401380	544.914829331667	0.010573808153
4	401383	544.914887086283	5.7754616e-05
4	401430	545.000874384486	0.085987298203
4	401449	545.006340512169	0.005466127683
4	401468	545.042299810088	0.035959297919
4	401483	545.05293103748	0.010631227392
4	401486	545.053388557944	0.000457520464
4	401521	545.108380322502	0.054991764558
4	401524	545.108969622638	0.000589300136
4	401547	545.151756826772	0.042787204134
4	401586	545.171942689964	0.020185863192
4	401593	545.173179884951	0.001237194987
4	401596	545.173832477797	0.000652592846
4	401639	545.234329072884	0.060496595087
4	401650	545.247375707472	0.013046634588
4	401675	545.254888976711	0.007513269239
4	401680	545.257473602113	0.002584625402
4	401701	545.299383214437	0.041909612324
4	401704	545.299479670522	9.6456085e-05
4	401717	545.30446038647	0.004980715948
4	401732	545.317862859518	0.013402473048
4	401741	545.320429155677	0.002566296159
4	401746	545.323583172931	0.003154017254
4	401749	545.323714329681	0.00013115675
4	401756	545.325836980371	0.00212265069
4	401807	545.416906830983	0.091069850612
4	401810	545.416972163675	6.5332692e-05
4	401821	545.420565724729	0.003593561054
4	401864	545.496499161432	0.075933436703
4	401885	545.537872642993	0.041373481561
4	401894	545.542829673175	0.004957030182
4	401913	545.56348547184	0.020655798665
4	401940	545.630583074051	0.067097602211
4	401959	545.650490759504	0.019907685453
4	401966	545.65590359283	0.005412833326
4	401989	545.68060320941	0.02469961658
4	402012	545.691365218468	0.010762009058
4	402015	545.692804170175	0.001438951707
4	402022	545.719751248344	0.026947078169
4	402037	545.725303903214	0.00555265487
4	402048	545.76021549631	0.034911593096
4	402057	545.766638271592	0.006422775282
4	402062	545.767631728412	0.00099345682
4	402073	545.802707249495	0.035075521083
4	402080	545.816181639155	0.01347438966
4	402087	545.818817457181	0.002635818026
4	402114	545.867093651106	0.048276193925
4	402125	545.875612822211	0.008519171105
4	402140	545.916911652699	0.041298830488
4	402147	545.919550490057	0.002638837358
4	402150	545.920364695667	0.00081420561
4	402173	545.972321184526	0.051956488859
4	402187	546.001381812263	0.029060627737
4	402220	546.039086334886	0.037704522623
4	402249	546.1150812956	0.075994960714
4	402254	546.116124063146	0.001042767546
4	402287	546.244818292678	0.128694229532
4	402298	546.322715926713	0.077897634035
4	402301	546.32284846996	0.000132543247
4	402304	546.323153709569	0.000305239609
4	402415	546.546735915747	0.223582206178
4	402450	546.606477219335	0.059741303588
4	402453	546.607637024068	0.001159804733
4	402456	546.607699640685	6.2616617e-05
4	402469	546.622612571393	0.014912930708
4	402472	546.622688058665	7.5487272e-05
4	402475	546.623023482992	0.000335424327
4	402482	546.628482587373	0.005459104381
4	402485	546.629189187137	0.000706599764
4	402490	546.629649510944	0.000460323807
4	402549	546.704142012795	0.074492501851
4	402552	546.704148931489	6.918694e-06
4	402595	546.738491338155	0.034342406666
4	402602	546.74882305985	0.010331721695
4	402633	546.79793709397	0.04911403412
4	402652	546.892022039845	0.094084945875
4	402663	546.913109428027	0.021087388182
4	402741	547.017238367369	0.104128939342
4	402752	547.018951903886	0.001713536517
4	402791	547.037258129183	0.018306225297
4	402802	547.043779666353	0.00652153717
4	402813	547.049265047833	0.00548538148
4	402856	547.096756874216	0.047491826383
4	402867	547.103565893042	0.006809018826
4	402886	547.161180054396	0.057614161354
4	402889	547.164341134067	0.003161079671
4	402912	547.186285758517	0.02194462445
4	402939	547.211139015992	0.024853257475
4	402958	547.222952074794	0.011813058802
4	402965	547.228135362496	0.005183287702
4	403028	547.350725419682	0.122590057186
4	403047	547.373358031638	0.022632611956
4	403064	547.422470868524	0.049112836886
4	403067	547.423876187768	0.001405319244
4	403092	547.439731404404	0.015855216636
4	403135	547.556421497295	0.116690092891
4	403140	547.556659032182	0.000237534887
4	403149	547.563790656823	0.007131624641
4	403204	547.630511269439	0.066720612616
4	403215	547.65710711293	0.026595843491
4	403226	547.674986285412	0.017879172482
4	403261	547.712159241903	0.037172956491
4	403288	547.768837268782	0.056678026879
4	403295	547.772826391041	0.003989122259
4	403302	547.774103420838	0.001277029797
4	403313	547.783396342769	0.009292921931
4	403318	547.78396819384	0.000571851071
4	403329	547.788691198226	0.004723004386
4	403342	547.795359652477	0.006668454251
4	403377	547.834425000263	0.039065347786
4	403380	547.834665927886	0.000240927623
4	403399	547.859924022002	0.025258094116
4	403406	547.886693249032	0.02676922703
4	403465	547.985408297126	0.098715048094
4	403478	547.995587725769	0.010179428643
4	403481	547.996211105768	0.000623379999
4	403490	547.997589900144	0.001378794376
4	403504	548.00291464459	0.005324744446
4	403507	548.003401132311	0.000486487721
4	403522	548.034473976198	0.031072843887
4	403551	548.060047005432	0.025573029234
4	403572	548.125758799581	0.065711794149
4	403591	548.142737536335	0.016978736754
4	403614	548.235443980054	0.092706443719
4	403637	548.266401294467	0.030957314413
4	403704	548.378758204176	0.112356909709
4	403735	548.441061271535	0.062303067359
4	403750	548.444956957034	0.003895685499
4	403755	548.446946656288	0.001989699254
4	403760	548.448251100873	0.001304444585
4	403769	548.449875058351	0.001623957478
4	403772	548.450409922552	0.000534864201
4	403793	548.466315970192	0.01590604764
4	403796	548.466707441302	0.00039147111
4	403813	548.50093523758	0.034227796278
4	403822	548.505605934634	0.004670697054
4	403829	548.520534175095	0.014928240461
4	403832	548.520686808619	0.000152633524
4	403903	548.75935585867	0.238669050051
4	403918	548.777287239488	0.017931380818
4	403947	548.798502898268	0.02121565878
4	403966	548.808723135759	0.010220237491
4	403971	548.81068127125	0.001958135491
4	404010	548.855357708613	0.044676437363
4	404013	548.855379580739	2.1872126e-05
4	404028	548.878015937465	0.022636356726
4	404043	548.926876149348	0.048860211883
4	404058	548.983348330892	0.056472181544
4	404090	549.005909565827	0.022561234935
4	404095	549.007079842649	0.001170276822
4	404106	549.015434687335	0.008354844686
4	404123	549.049961039869	0.034526352534
4	404126	549.050135242875	0.000174203006
4	404167	549.075520553828	0.025385310953
4	404178	549.102958925042	0.027438371214
4	404189	549.106874199366	0.003915274324
4	404198	549.113267617776	0.00639341841
4	404251	549.184842330951	0.071574713175
4	404256	549.186321022637	0.001478691686
4	404261	549.186885608358	0.000564585721
4	404268	549.188120936267	0.001235327909
4	404283	549.201604199934	0.013483263667
4	404286	549.201806987477	0.000202787543
4	404305	549.223986798522	0.022179811045
4	404312	549.232741496388	0.008754697866
4	404343	549.274776897118	0.04203540073
4	404366	549.286501787759	0.011724890641
4	404389	549.301589192531	0.015087404772
4	404394	549.301909017063	0.000319824532
4	404417	549.324258999475	0.022349982412
4	404456	549.349453949775	0.0251949503
4	404511	549.385942693973	0.036488744198
4	404538	549.400159309714	0.014216615741
4	404571	549.426838859883	0.026679550169
4	404582	549.439484293649	0.012645433766
4	404609	549.473547663021	0.034063369372
4	404640	549.55975879709	0.086211134069
4	404643	549.561114231912	0.001355434822
4	404654	549.573900159158	0.012785927246
4	404665	549.577832336367	0.003932177209
4	404672	549.579164016059	0.001331679692
4	404681	549.58638666289	0.007222646831
4	404690	549.588315412528	0.001928749638
4	404711	549.596483052235	0.008167639707
4	404728	549.614961059809	0.018478007574
4	404751	549.622165257679	0.00720419787
4	404758	549.641534084278	0.019368826599
4	404781	549.66851272366	0.026978639382
4	404788	549.675440506473	0.006927782813
4	404791	549.675521402405	8.0895932e-05
4	404794	549.675769889602	0.000248487197
4	404805	549.693636655257	0.017866765655
4	404872	549.844821613336	0.151184958079
4	404883	549.850303277318	0.005481663982
4	404902	549.876089686922	0.025786409604
4	404921	549.902673842711	0.026584155789
4	404936	549.924331474477	0.021657631766
4	404983	550.001265170127	0.07693369565
4	404990	550.034108164544	0.032842994417
4	405001	550.069645733873	0.035537569329
4	405014	550.078189217979	0.008543484106
4	405063	550.157782106149	0.07959288817
4	405072	550.161965178631	0.004183072482
4	405077	550.163090936515	0.001125757884
4	405088	550.181098234674	0.018007298159
4	405145	550.249702836833	0.068604602159
4	405194	550.283758831853	0.03405599502
4	405251	550.358735098132	0.074976266279
4	405258	550.36168868652	0.002953588388
4	405267	550.378822074867	0.017133388347
4	405274	550.379832948056	0.001010873189
4	405289	550.394244129293	0.014411181237
4	405296	550.404551343096	0.010307213803
4	405311	550.410172879217	0.005621536121
4	405318	550.412992215999	0.002819336782
4	405361	550.511269095024	0.098276879025
4	405364	550.511961997311	0.000692902287
4	405381	550.528331258369	0.016369261058
4	405404	550.543636342099	0.01530508373
4	405425	550.549948597016	0.006312254917
4	405436	550.55384795834	0.003899361324
4	405443	550.558275916377	0.004427958037
4	405470	550.586649483214	0.028373566837
4	405489	550.631258734225	0.044609251011
4	405496	550.633465659389	0.002206925164
4	405499	550.634059901924	0.000594242535
4	405510	550.657787083361	0.023727181437
4	405529	550.685091992363	0.027304909002
4	405536	550.686601973643	0.00150998128
4	405539	550.686897260513	0.00029528687
4	405606	550.846910526452	0.160013265939
4	405623	550.853006140483	0.006095614031
4	405640	550.859765393815	0.006759253332
4	405655	550.884438874351	0.024673480536
4	405662	550.887555124475	0.003116250124
4	405673	550.900206248339	0.012651123864
4	405692	550.952003782028	0.051797533689
4	405749	551.036837526498	0.08483374447
4	405800	551.15246606811	0.115628541612
4	405811	551.162085771052	0.009619702942
4	405816	551.162911361481	0.000825590429
4	405825	551.164139775825	0.001228414344
4	405828	551.165059135605	0.00091935978
4	405833	551.172024452697	0.006965317092
4	405858	551.202615560997	0.0305911083
4	405889	551.323527931636	0.120912370639
4	405896	551.332249760398	0.008721828762
4	405903	551.335688607226	0.003438846828
4	405918	551.340973853187	0.005285245961
4	405933	551.368590862816	0.027617009629
4	405960	551.481567416414	0.112976553598
[...]
5	1095477	1489.415161995732	0.668446394158
5	1095480	1489.417238291416	0.003641417084
5	1095485	1489.41785500977	0.000616718354
5	1095504	1489.43530143743	3.910283081223
5	1095507	1489.435357756854	5.6319424e-05
5	1095530	1489.517121086733	3.951613672789
5	1095541	1489.54394940637	0.760974444055
5	1095548	1489.558888696575	0.765471346158
5	1095551	1489.559882802584	0.000994106009
5	1095556	1489.561052138898	0.001169336314
5	1095565	1489.567264634628	0.00621249573
5	1095612	1489.670133048238	6.214245863924
5	1095615	1489.671149239992	0.001016191754
5	1095638	1489.686847248102	5.423309490675
5	1095641	1489.687273266992	0.00042601889
5	1095650	1489.690717616251	0.003444349259
5	1095671	1489.722555426307	3.972594021424
5	1095698	1489.753328328138	3.056394496241
5	1095711	1489.814832720869	4.723686908508
5	1095722	1489.824074578282	0.786256540572
5	1095745	1489.83915080736	0.794368853192
5	1095766	1489.871208257898	4.605017757889
5	1095797	1489.884712780514	4.645767102738
5	1095840	1490.012214666875	7.979606469487
5	1095851	1490.02309694318	0.748618584132
5	1095902	1490.092555427556	6.157395037102
5	1095909	1490.096322853095	0.003767425539
5	1095940	1490.157957041397	1.488380610915
5	1095951	1490.167951161703	2.137685852455
5	1095982	1490.197386841406	0.762029084552
5	1095989	1490.200164824113	0.782309814343
5	1095996	1490.201917325748	0.004530484342
5	1096007	1490.216246770904	2.141286422977
5	1096028	1490.249134178757	1.49681078394
5	1096047	1490.257566111855	0.008431933098
5	1096060	1490.265646184486	0.008080072631
5	1096063	1490.265910492953	0.000264308467
5	1096066	1490.266221291919	0.000310798966
5	1096073	1490.266461071921	0.722511665551
5	1096088	1490.273022241335	0.006800949416
5	1096099	1490.312831738643	2.984403844061
5	1096114	1490.339445176843	0.772180542215
5	1096127	1490.372673241993	1.575789472278
5	1096132	1490.374830398165	0.002157156172
5	1096137	1490.375670094211	0.000839696046
5	1096140	1490.375752983215	3.96872381801
5	1096157	1490.389244489796	2.968034955441
5	1096164	1490.391200539861	0.001956050065
5	1096167	1490.391326990693	0.000126450832
5	1096208	1490.462714178961	1.558181390258
5	1096217	1490.468474418187	1.553122991224
5	1096246	1490.488624736889	0.025910557928
5	1096271	1490.547999574908	2.303701201835
5	1096282	1490.594947971529	2.334483170902
5	1096309	1490.643041912952	2.333092223663
5	1096322	1490.650137885447	0.007095972495
5	1096335	1490.658000635115	0.833926056833
5	1096358	1490.663951767768	0.005951132653
5	1096365	1490.665351623896	0.826200816536
5	1096380	1490.673625687973	0.802417430075
5	1096403	1490.686488671186	1.531184360353
5	1096430	1490.73980473627	1.591088115243
5	1096437	1490.745145214319	0.005340478049
5	1096444	1490.757714315579	2.364676158719
5	1096451	1490.766845964085	1.549502274249
5	1096478	1490.802039191357	2.312800740154
5	1096501	1490.824923578353	2.231532268835
5	1096504	1490.826352279117	0.001428700764
5	1096533	1490.851562572429	1.525143667177
5	1096558	1490.865644206027	0.769321352932
5	1096601	1490.961074173005	2.294413200122
5	1096612	1490.966541444496	0.005467271491
5	1096615	1490.966581150907	3.9706411e-05
5	1096748	1491.162708223865	5.536718240022
5	1096751	1491.16286055685	0.000152332985
5	1096762	1491.176166515491	2.316872604003
5	1096775	1491.189029454026	0.012862938535
5	1096788	1491.19856809946	1.507850483209
5	1096799	1491.206151471856	1.535002231864
5	1096804	1491.2079283679	0.739453949713
5	1096817	1491.218945859364	0.011017491464
5	1096824	1491.222524821827	2.308683532253
5	1096843	1491.250502866295	0.761878129406
5	1096846	1491.253924258515	0.00342139222
5	1096849	1491.25717962345	0.003255364935
5	1096852	1491.257607783234	0.000428159784
5	1096855	1491.258363043577	0.000755260343
5	1096878	1491.311614764024	0.716666792495
5	1096889	1491.320834374611	1.506001653742
5	1096892	1491.322963884433	0.002129509822
5	1096923	1491.415744291549	2.285230057666
5	1096934	1491.422423726777	0.006679435228
5	1096945	1491.435635401052	0.771683633284
5	1096988	1491.459927231883	0.714782017564
5	1096997	1491.464426891312	0.706712575733
5	1097030	1491.486035786844	0.683996595487
5	1097035	1491.486651365767	2.253098354618
5	1097038	1491.489034393643	0.002998606799
5	1097047	1491.496167003478	0.009515637711
5	1097060	1491.503049108873	7.643055725354
5	1097063	1491.504203099761	0.008036096283
5	1097092	1491.526247202949	0.699894923832
5	1097095	1491.527819604067	0.001572401118
5	1097102	1491.530045262674	0.002225658607
5	1097109	1491.531237172207	6.150425729764
5	1097122	1491.537032564192	5.50737309219
5	1097155	1491.570391465664	0.704747259637
5	1097166	1491.574504668568	0.004113202904
5	1097177	1491.608700814741	2.23881632572
5	1097192	1491.648244687894	2.261419129068
5	1097227	1491.70291312884	1.502748304727
5	1097230	1491.704641432016	0.001728303176
5	1097283	1491.762521644075	1.48949940274
5	1097308	1491.773283071516	1.506821999595
5	1097327	1491.781205629052	3.62779794994
5	1097330	1491.782952988177	0.001747359125
5	1097385	1491.845444244187	0.646876144727
5	1097388	1491.848430972619	0.659401518593
5	1097451	1491.916102022005	2.959336020666
5	1097454	1491.917415201424	0.001313179419
5	1097457	1491.917827653063	0.000412451639
5	1097472	1491.931712313184	0.013884660121
5	1097483	1491.942248820564	0.01053650738
5	1097486	1491.94245024877	0.000201428206
5	1097497	1491.945378447572	0.633763683548
5	1097500	1491.946035964605	0.000657517033
5	1097515	1491.960997990057	0.018547741287
5	1097518	1491.96100324031	5.250253e-06
5	1097521	1491.961331694931	0.000328454621
5	1097544	1491.998307229865	0.675343345432
5	1097554	1492.000994161345	0.00268693148
5	1097565	1492.009899832965	1.359761947518
5	1097570	1492.010743122249	0.000843289284
5	1097573	1492.012764971376	1.34741334748
5	1097576	1492.01295499235	0.002211870101
5	1097585	1492.014781786347	0.59235805957
5	1097592	1492.018044321871	0.003262535524
5	1097605	1492.033838610988	1.347349939802
5	1097612	1492.036274051289	0.002435440301
5	1097647	1492.05328690386	1.286440939775
5	1097652	1492.055082797471	0.001795893611
5	1097719	1492.106626907634	3.52068019143
5	1097728	1492.108255133007	0.605206024134
5	1097733	1492.109360566328	0.001105433321
5	1097754	1492.115010973658	0.584965710984
5	1097765	1492.118162805289	0.011535897655
5	1097768	1492.118620259271	0.003609285613
5	1097837	1492.174654950972	0.600150282404
5	1097840	1492.174701645221	4.6694249e-05
5	1097845	1492.175678689984	0.000977044763
5	1097858	1492.178847271145	0.570146456404
5	1097863	1492.179877325356	0.001030054211
5	1097866	1492.181706404781	0.650469232574
5	1097899	1492.198179265418	6.758440973354
5	1097902	1492.198579182853	0.000399917435
5	1097909	1492.200303285157	0.001724102304
5	1097920	1492.205464667169	2.037513505466
5	1097927	1492.20723477872	2.049277737323
5	1097930	1492.208409275253	0.001174496533
5	1097937	1492.211885095423	0.006420428254
5	1097982	1492.248594242056	0.54395281004
5	1098015	1492.305916179544	1.993084440901
5	1098084	1492.33943435555	0.556481367373
5	1098093	1492.340649523229	1.177788966379
5	1098098	1492.342582867392	0.001933344163
5	1098101	1492.343028063065	1.951701072372
5	1098106	1492.344405223714	0.001822356322
5	1098129	1492.366776197111	0.521331952924
5	1098140	1492.379151865497	0.012375668386
5	1098179	1492.450186339004	1.23124047964
5	1098210	1492.511426954414	2.758098626276
5	1098225	1492.516233351621	0.004806397207
5	1098252	1492.543621231779	5.840928041364
5	1098271	1492.59513206223	0.582367090854
5	1098278	1492.63284148219	0.61988648984
5	1098313	1492.669530348411	1.995904660438
5	1098316	1492.670263990294	0.000733641883
5	1098323	1492.680293177811	2.795580397297
5	1098334	1492.690968659243	1.23104142736
5	1098365	1492.719102310167	2.706887643292
5	1098372	1492.723174554236	1.234140160593
5	1098411	1492.858012637743	5.828482659584
5	1098422	1492.874806312197	0.016793674454
5	1098500	1493.013507906536	0.805098631283
5	1098503	1493.014252261289	0.000744354753
5	1098530	1493.057549244533	8.19679778346
5	1098561	1493.115935518853	2.740182535638
5	1098592	1493.192798821834	0.84839359812
5	1098611	1493.215233644758	1.992708822931
5	1098620	1493.258787242781	0.879635377284
5	1098623	1493.259373032396	2.05322156054
5	1098658	1493.331591666282	3.609036239975
5	1098671	1493.360003424326	1.398671729395
5	1098678	1493.361443267053	0.001439842727
5	1098681	1493.361855238456	0.000411971403
5	1098708	1493.405602002947	1.404607841602
5	1098717	1493.408801178895	5.057610880722
5	1098730	1493.421739877044	0.878118645265
5	1098745	1493.440019270345	1.421974948474
5	1098756	1493.448105540676	2.012470139624
5	1098759	1493.448818925906	0.00071338523
5	1098766	1493.48027270665	1.443998655361
5	1098773	1493.488606781397	0.818342791103
5	1098776	1493.488791799951	0.000185018554
5	1098779	1493.489337040288	0.000545240337
5	1098798	1493.51938922345	0.839096045639
5	1098807	1493.526478670759	0.835510011516
5	1098856	1493.597602789266	2.093399689505
5	1098867	1493.610515880406	6.463122779233
5	1098918	1493.674292162188	1.555671902917
5	1098925	1493.675343956268	0.00105179408
5	1098940	1493.725032864208	1.549354174224
5	1098943	1493.725214487576	0.000181623368
5	1098950	1493.734996518746	1.616833713457
5	1098973	1493.780471337058	4.401879943476
5	1098984	1493.7849638234	2.136719135506
5	1098993	1493.799803170096	1.599499884939
5	1098996	1493.800168752625	0.015204929225
5	1099003	1493.801614041397	0.001445288772
5	1099012	1493.809020818705	4.393858822973
5	1099027	1493.846923663353	0.78937441882
5	1099030	1493.847023351013	9.968766e-05
5	1099065	1493.88920551503	0.773269996177
5	1099072	1493.890252027883	0.001046512853
5	1099091	1493.910359329439	3.534689235228
5	1099118	1493.935900768235	2.162617696719
5	1099133	1493.957444747068	1.618010391518
5	1099164	1493.998149229011	0.782915584253
5	1099210	1494.043532545903	2.785169502326
5	1099229	1494.094377905889	0.762786239607
5	1099236	1494.100862699601	1.58462934798
5	1099245	1494.109724166574	0.747868928118
5	1099256	1494.111179416611	0.702378237716
5	1099259	1494.113655763629	0.003931597055
5	1099262	1494.115693894921	0.00451447831
5	1099267	1494.116164871428	0.000470976507
5	1099306	1494.152608208004	0.672335501354
5	1099313	1494.162200517384	0.00959230938
5	1099316	1494.162408413431	0.000207896047
5	1099407	1494.258208679073	2.148848112745
5	1099434	1494.308856865869	0.633512909601
5	1099441	1494.314682935967	0.005826070098
5	1099450	1494.3367709692	1.461964657003
5	1099459	1494.340776726592	0.605780207846
5	1099502	1494.421409020127	0.61979497873
5	1099505	1494.42212780046	0.000718780333
5	1099520	1494.435505446905	4.233588121157
5	1099531	1494.451722515093	2.23983741967
5	1099546	1494.488941102536	2.24034686048
5	1099557	1494.517218113577	4.300971342673
5	1099580	1494.578934235796	5.061813149063
5	1099603	1494.664024871811	0.728124103576
5	1099610	1494.667223793832	0.003198922021
5	1099619	1494.671102912526	2.328074849461
5	1099648	1494.701166923611	0.743722176543
5	1099683	1494.748734937616	15.072426550668
5	1099710	1494.772283184324	0.774133955313
5	1099725	1494.783180641465	4.235181066557
5	1099748	1494.832388013017	1.42678601007
5	1099763	1494.855316300239	0.74166053661
5	1099770	1494.86130896244	1.439569085396
5	1099793	1494.880597182884	2.247755700694
5	1099824	1494.932309349176	1.405830678417
5	1099831	1494.94662390805	3.482197016738
5	1099858	1494.962749576019	4.939652632839
5	1099861	1494.962841450313	9.1874294e-05
5	1099878	1494.976917948421	2.253743394185
5	1099891	1494.986417994745	0.009500046324
5	1099914	1495.014031490272	2.294929180105
5	1099925	1495.02213504559	1.411619165184
5	1099936	1495.026530279929	0.004395234339
5	1099959	1495.074878235999	0.760195300032
5	1099974	1495.098286656352	0.75750992976
5	1099997	1495.115760425283	2.934054020502
5	1100032	1495.173580493204	2.159328231915
5	1100063	1495.219715404868	1.372692053855
5	1100106	1495.331250539864	1.440998511981
5	1100137	1495.362055462564	0.694831668732
5	1100156	1495.369671508016	0.038420968152
5	1100167	1495.374609713181	0.004938205165
5	1100182	1495.379746806594	2.18694798476
5	1100193	1495.386114902493	0.006368095899
5	1100204	1495.390745934595	3.542314961976
5	1100227	1495.400807562344	2.142020319563
5	1100258	1495.44482327265	0.661642631185
5	1100265	1495.449651425885	1.406118879982
5	1100282	1495.461100866657	1.366722960768
5	1100289	1495.464908235175	0.003807368518
5	1100292	1495.466270110818	0.021446838168
5	1100303	1495.470884580809	1.370021881208
5	1100368	1495.553943570889	0.673346388005
5	1100403	1495.578157187551	2.983025125321
5	1100406	1495.583556623464	0.005399435913
5	1100425	1495.606248024611	1.44383961118
5	1100436	1495.611162445406	0.004914420795
5	1100483	1495.713894433202	0.767270525152
5	1100502	1495.738627270237	0.752209275492
5	1100525	1495.780139712541	0.753609432612
5	1100552	1495.838816826721	0.723056401438
5	1100579	1495.850665418498	4.884084267591
5	1100606	1495.913115997637	0.739535504433
5	1100617	1495.915139443268	1.493011642808
5	1100723	1496.143409099149	0.752663164554
5	1100742	1496.178327283167	0.777519720823
5	1100751	1496.181769109337	0.00344182617
5	1100788	1496.271568458049	0.805298347231
5	1100793	1496.273423907031	0.001855448982
5	1100814	1496.278553441977	0.005129534946
5	1100845	1496.33653891112	1.47522994868
5	1100852	1496.338853955763	0.784910384874
5	1100891	1496.369425073033	2.920606147127
5	1100914	1496.396968203973	4.341885406502
5	1100937	1496.409362829107	1.477053479931
5	1100956	1496.420647965865	2.823045176599
5	1100991	1496.468832846168	0.688693133627
5	1100994	1496.469578444348	0.00074559818
5	1101009	1496.527221049171	5.675658476742
5	1101014	1496.529138363994	0.001917314823
5	1101017	1496.5292938862	1.454415650201
5	1101024	1496.532721282462	0.003427396262
5	1101037	1496.53834697401	0.005625691548
5	1101048	1496.544075888282	0.005728914272
5	1101083	1496.579143249125	0.728477830627
5	1101118	1496.65231215447	0.739196156833
5	1101137	1496.787181740393	2.3354592253
5	1101140	1496.787966368814	0.000784628421
5	1101153	1496.792665227253	0.004698858439
5	1101190	1496.861758864803	6.52231368796
5	1101193	1496.863296145798	0.001537280995
5	1101212	1496.86811633581	2.289182100014
5	1101219	1496.871009805562	4.565093626018
5	1101266	1496.919171319391	0.775762220242
5	1101342	1497.005223996547	1.540315761372
5	1101345	1497.005892359266	1.556240933381
5	1101348	1497.010475342753	0.005251346206
5	1101353	1497.012011246727	0.001535903974
5	1101364	1497.021606493852	0.743053051875
5	1101369	1497.022842912079	0.001236418227
5	1101398	1497.056195204261	2.200878904022
5	1101451	1497.162720720643	3.643331497193
5	1101454	1497.163032931723	0.76606472775
5	1101503	1497.208581243787	2.950372564714
5	1101516	1497.231859816302	2.21782832603
5	1101533	1497.251418837927	0.781840393579
5	1101540	1497.254870394272	0.725732030278
5	1101551	1497.26679282696	3.541578339384
5	1101582	1497.325192118548	0.746048869423
5	1101645	1497.434198142891	1.519058699623
5	1101672	1497.450219455155	0.657554227902
5	1101679	1497.451292682999	2.962351580463
5	1101682	1497.454273599449	0.00298091645
5	1101755	1497.493069858228	2.821966945702
5	1101778	1497.513473848205	2.151418385641
5	1101783	1497.515648946532	0.022579088304
5	1101800	1497.521836426118	2.147226712937
5	1101829	1497.556519000751	2.807784063135
5	1101856	1497.6024243038	5.152237964796
5	1101871	1497.651814441713	0.639803194986
5	1101882	1497.662062722007	0.639219809928
5	1101889	1497.662459123586	0.010644681873
5	1101900	1497.668122111629	0.006059389622
5	1101903	1497.669873075051	0.001750963422
5	1101938	1497.686020866121	1.349481955001
5	1101949	1497.689482264746	0.003461398625
5	1101980	1497.721581915112	2.138025291648
5	1102013	1497.798054851627	0.635021919904
5	1102030	1497.808513725455	4.319176685167
5	1102041	1497.821391056534	2.858549606221
5	1102044	1497.821806817792	0.000415761258
5	1102101	1497.865786728778	0.633926912476
5	1102118	1497.872385081006	0.006598352228
5	1102157	1497.936151844054	2.837865187702
5	1102164	1497.939526035741	0.614333917193
5	1102167	1497.939643531369	0.000117495628
5	1102174	1497.942457841126	2.103641014405
5	1102189	1497.954860617295	5.774983291939
5	1102196	1497.959215471653	4.178744134595
5	1102205	1497.962206608423	3.526701161518
5	1102208	1497.963378695662	4.154357876957
5	1102213	1497.964294995861	0.000916300199
5	1102216	1497.965056735354	0.000761739493
5	1102231	1497.973943629287	0.019083011992
5	1102246	1497.976647324679	4.176844154583
5	1102257	1497.982348046403	0.008404417116
5	1102266	1497.984911262891	2.765195858023
5	1102298	1498.002093886987	1.138797741189
5	1102305	1498.009057988084	0.024146725193
5	1102348	1498.050180271354	1.397868116884
5	1102351	1498.05056083901	0.000380567656
5	1102354	1498.053781182277	0.003220343267
5	1102369	1498.080531130299	0.564882183767
5	1102376	1498.088476817263	0.575002969058
5	1102391	1498.109498576459	3.408331652848
5	1102398	1498.111440717137	0.589604291019
5	1102405	1498.113237977366	1.931468868029
5	1102408	1498.114289496196	0.00105151883
5	1102435	1498.19854778218	3.426264597856
5	1102450	1498.269150928028	0.666726624228
5	1102485	1498.314769067986	1.258573863725
5	1102496	1498.321780536027	4.205615664599
5	1102505	1498.325151688348	0.655278613297
5	1102518	1498.336983499977	0.011831811629
5	1102537	1498.363698383774	0.026714883797
5	1102540	1498.364274063516	0.000575679742
5	1102547	1498.366258470228	0.676776205482
5	1102570	1498.38663515842	2.047781202657
5	1102573	1498.386963571184	0.000328412764
5	1102598	1498.413922056751	2.044496983718
5	1102611	1498.436944778217	0.63888992659
5	1102622	1498.443319114857	2.729424681655
5	1102673	1498.501335256713	2.080687290848
5	1102708	1498.652988185973	0.780603104967
5	1102779	1498.751839728859	0.786782993505
5	1102786	1498.754787943197	0.002948214338
5	1102809	1498.787284137715	0.785190250728
5	1102812	1498.787840358962	0.000556221247
5	1102829	1498.800785882029	1.34651228258
5	1102838	1498.803259803211	0.826612478532
5	1102857	1498.824855442175	1.953845636613
5	1102876	1498.886632144278	2.018515808468
5	1102899	1498.901101296479	0.014469152201
5	1102906	1498.902414076232	4.992054746793
5	1102921	1498.913883537632	0.012782241153
5	1102964	1498.930757329019	0.016873791387
5	1102969	1498.933015680343	1.376496679592
5	1102972	1498.933308660469	0.00255133145
5	1102975	1498.933615616107	0.000599935764
5	1102996	1498.943054436539	5.683681404143
5	1103003	1498.947639049506	0.004584612967
5	1103014	1498.953576480235	7.00754051563
5	1103019	1498.955497216853	0.001920736618
5	1103024	1498.95844819251	0.002950975657
5	1103033	1498.964768556222	3.493883975413
5	1103054	1498.979010961686	0.014242405464
5	1103076	1499.035816130907	0.71403559488
5	1103095	1499.058282970147	2.052390610881
5	1103122	1499.08194068887	0.715682218642
5	1103143	1499.08917345323	3.478011007824
5	1103164	1499.10842978394	1.945709063297
5	1103167	1499.109315540015	0.000885756075
5	1103170	1499.11014811651	0.000832576495
5	1103175	1499.110962526725	0.000814410215
5	1103212	1499.16902184528	2.759659016173
5	1103243	1499.279880116528	2.028461278601
5	1103254	1499.286373888441	2.742298000159
5	1103285	1499.334987950664	1.392530109538
5	1103320	1499.375700721272	7.613179077197
5	1103323	1499.37780178505	0.002101063778
5	1103354	1499.410388325431	1.960168870276
5	1103357	1499.410755189185	0.000366863754
5	1103364	1499.416261076052	0.005505886867
5	1103391	1499.477600593806	4.960382480229
5	1103404	1499.495449931946	0.670594489771
5	1103441	1499.555163973017	1.445665396558
5	1103456	1499.597095261084	2.677923941693
5	1103467	1499.6252356497	1.513794932563
5	1103518	1499.719484037343	2.057024913757
5	1103533	1499.7267842428	0.747773281114
5	1103556	1499.776245852139	4.943857839122
5	1103567	1499.783200088184	1.396236517
5	1103594	1499.792924269633	0.016678417494
5	1103617	1499.836199488865	1.422277432114
5	1103624	1499.837417917668	0.001218428803
5	1103627	1499.83987149469	0.002453577022
5	1103666	1499.968784365602	0.799762520322
5	1103669	1499.969918401297	0.001134035695
5	1103684	1499.997195824383	2.788614580596

