version 2
run scenario1-2-20211222-17:37:04-12112
attr configname scenario1
attr datetime 20211222-17:37:04
attr experiment scenario1
attr inifile omnetpp.ini
attr iterationvars ""
attr iterationvarsf ""
attr measurement ""
attr network Network
attr processid 12112
attr repetition 2
attr replication #2
attr resultdir results
attr runnumber 2
attr seedset 2
param **.server.p1 0.2
param **.server.p2 0.385
param **.clients.num_clients 60
param **.processor.service_rate 1000
param **.disk.service_rate 300
param **.webServer.serv_rate_w 80
param **.clients.timeWindow 5s

vector 0 Network.clients pkt_counter:vector ETV
attr source pkt_counter_s
vector 1 Network.server.processor processor_backlog:vector ETV
attr source processor_backlog_s
vector 2 Network.server.disk disk_backlog:vector ETV
attr source disk_backlog_s
vector 3 Network.webServer wserver_backlog:vector ETV
attr source wserver_backlog_s
vector 4 Network.clients interarrival_time:vector ETV
attr source interarrival_time_s
vector 5 Network.clients response_time:vector ETV
attr source response_time_s
4	369386	500.026273895587	0.049948067503
4	369417	500.061980824375	0.035706928788
4	369438	500.074940635782	0.012959811407
4	369487	500.107658367464	0.032717731682
4	369498	500.115617408881	0.007959041417
4	369541	500.151372828001	0.03575541912
4	369554	500.15724515958	0.005872331579
4	369611	500.226444850473	0.069199690893
4	369614	500.228646152532	0.002201302059
4	369617	500.231212986914	0.002566834382
4	369642	500.246024749107	0.014811762193
4	369677	500.26577741393	0.019752664823
4	369680	500.266371340966	0.000593927036
4	369683	500.26700201182	0.000630670854
4	369686	500.268164203645	0.001162191825
4	369709	500.279627243684	0.011463040039
4	369714	500.28230315176	0.002675908076
4	369745	500.303575112366	0.021271960606
4	369762	500.314012977141	0.010437864775
4	369765	500.31403272192	1.9744779e-05
4	369778	500.323671548964	0.009638827044
4	369793	500.350880287016	0.027208738052
4	369844	500.478552595112	0.127672308096
4	369847	500.480372926118	0.001820331006
4	369876	500.493406821289	0.013033895171
4	369893	500.498859679238	0.005452857949
4	369908	500.571297674435	0.072437995197
4	369911	500.571446648809	0.000148974374
4	369918	500.57356996176	0.002123312951
4	369929	500.587991262407	0.014421300647
4	369932	500.588413893063	0.000422630656
4	370003	500.684000384914	0.095586491851
4	370010	500.687363726559	0.003363341645
4	370027	500.702988915544	0.015625188985
4	370032	500.703750295448	0.000761379904
4	370037	500.704240425814	0.000490130366
4	370066	500.768211118282	0.063970692468
4	370091	500.823197860825	0.054986742543
4	370132	500.855398279579	0.032200418754
4	370139	500.857061455843	0.001663176264
4	370146	500.864747322462	0.007685866619
4	370149	500.86715339296	0.002406070498
4	370152	500.868457733539	0.001304340579
4	370163	500.871034939399	0.00257720586
4	370166	500.8712385756	0.000203636201
4	370197	500.89437705761	0.02313848201
4	370212	500.90900153766	0.01462448005
4	370243	500.95652589454	0.04752435688
4	370316	501.128301992089	0.171776097549
4	370347	501.187853272554	0.059551280465
4	370374	501.201744113216	0.013890840662
4	370389	501.203596475068	0.001852361852
4	370396	501.204515337139	0.000918862071
4	370427	501.231599175971	0.027083838832
4	370430	501.232681721124	0.001082545153
4	370485	501.297369087033	0.064687365909
4	370508	501.343241814946	0.045872727913
4	370511	501.343887945934	0.000646130988
4	370514	501.345157003645	0.001269057711
4	370577	501.435888112629	0.090731108984
4	370596	501.445991352634	0.010103240005
4	370611	501.458607075951	0.012615723317
4	370650	501.538597760765	0.079990684814
4	370661	501.542451854581	0.003854093816
4	370672	501.565921016013	0.023469161432
4	370693	501.59266423765	0.026743221637
4	370742	501.678916577954	0.086252340304
4	370745	501.679219607544	0.00030302959
4	370760	501.763555001961	0.084335394417
4	370771	501.816283135697	0.052728133736
4	370784	501.818463559661	0.002180423964
4	370789	501.818997283495	0.000533723834
4	370832	501.870483833983	0.051486550488
4	370843	501.873723585231	0.003239751248
4	370858	501.884883685868	0.011160100637
4	370871	501.895559970082	0.010676284214
4	370886	501.904590667707	0.009030697625
4	370907	501.941062124158	0.036471456451
4	370914	501.947494459032	0.006432334874
4	370941	501.983227437801	0.035732978769
4	370964	501.991310157142	0.008082719341
4	370990	502.005318996738	0.014008839596
4	371021	502.035068802859	0.029749806121
4	371044	502.045381295414	0.010312492555
4	371059	502.056789015125	0.011407719711
4	371062	502.056903262302	0.000114247177
4	371065	502.057824273267	0.000921010965
4	371080	502.077577802194	0.019753528927
4	371087	502.091059495616	0.013481693422
4	371130	502.129958204016	0.0388987084
4	371185	502.229997367131	0.100039163115
4	371208	502.35583993959	0.125842572459
4	371217	502.360551560899	0.004711621309
4	371250	502.399693377847	0.039141816948
4	371257	502.405921006016	0.006227628169
4	371276	502.429170316567	0.023249310551
4	371295	502.437502416351	0.008332099784
4	371326	502.456520613407	0.019018197056
4	371341	502.464518414606	0.007997801199
4	371348	502.470017107907	0.005498693301
4	371391	502.531454642989	0.061437535082
4	371394	502.535074569295	0.003619926306
4	371401	502.540733678241	0.005659108946
4	371404	502.540861327468	0.000127649227
4	371407	502.543001679716	0.002140352248
4	371442	502.612008376634	0.069006696918
4	371481	502.661054876889	0.049046500255
4	371484	502.661588183624	0.000533306735
4	371511	502.690286714707	0.028698531083
4	371514	502.691472390614	0.001185675907
4	371517	502.691757284981	0.000284894367
4	371522	502.694072380725	0.002315095744
4	371525	502.694161242407	8.8861682e-05
4	371542	502.701429325543	0.007268083136
4	371563	502.709514186497	0.008084860954
4	371566	502.710340975037	0.00082678854
4	371583	502.714477126044	0.004136151007
4	371594	502.718538581159	0.004061455115
4	371597	502.718730202326	0.000191621167
4	371600	502.719940088062	0.001209885736
4	371651	502.76847096481	0.048530876748
4	371662	502.807885190773	0.039414225963
4	371679	502.824180869082	0.016295678309
4	371696	502.851369946376	0.027189077294
4	371723	502.880861176061	0.029491229685
4	371748	502.893509112278	0.012647936217
4	371763	502.899164937836	0.005655825558
4	371804	502.972321854458	0.073156916622
4	371830	503.056055284437	0.083733429979
4	371853	503.092054659645	0.035999375208
4	371878	503.120096294122	0.028041634477
4	371883	503.12100780383	0.000911509708
4	371886	503.121090850763	8.3046933e-05
4	371903	503.126692597321	0.005601746558
4	371908	503.129749375951	0.00305677863
4	371943	503.159020878582	0.029271502631
4	371966	503.178292362073	0.019271483491
4	371969	503.179410049059	0.001117686986
4	371996	503.259537952053	0.080127902994
4	372055	503.312664406156	0.053126454103
4	372072	503.32458326225	0.011918856094
4	372075	503.324756676438	0.000173414188
4	372080	503.326562454766	0.001805778328
4	372099	503.368143587753	0.041581132987
4	372138	503.402867533154	0.034723945401
4	372201	503.496989373693	0.094121840539
4	372220	503.577716642759	0.080727269066
4	372235	503.62447451938	0.046757876621
4	372278	503.702904267028	0.078429747648
4	372281	503.705268145466	0.002363878438
4	372296	503.715415865925	0.010147720459
4	372303	503.719263310177	0.003847444252
4	372312	503.729308878175	0.010045567998
4	372317	503.73060246413	0.001293585955
4	372340	503.740386837938	0.009784373808
4	372363	503.752794407192	0.012407569254
4	372378	503.774967175076	0.022172767884
4	372389	503.779280245211	0.004313070135
4	372404	503.793872757206	0.014592511995
4	372407	503.79441257712	0.000539819914
4	372430	503.819073698554	0.024661121434
4	372457	503.848135078664	0.02906138011
4	372520	503.917737716703	0.069602638039
4	372531	503.923249814823	0.00551209812
4	372534	503.92325933448	9.519657e-06
4	372545	503.955195622554	0.031936288074
4	372548	503.958538995414	0.00334337286
4	372590	504.040092841742	0.081553846328
4	372597	504.045895336791	0.005802495049
4	372636	504.159651477218	0.113756140427
4	372643	504.167103261872	0.007451784654
4	372646	504.169139036191	0.002035774319
4	372649	504.169408560396	0.000269524205
4	372656	504.210617737773	0.041209177377
4	372663	504.216581819113	0.00596408134
4	372694	504.250251130631	0.033669311518
4	372705	504.25482436315	0.004573232519
4	372720	504.323810669836	0.068986306686
4	372727	504.326765252563	0.002954582727
4	372730	504.328942825605	0.002177573042
4	372733	504.330323262053	0.001380436448
4	372752	504.35492244315	0.024599181097
4	372755	504.355206914815	0.000284471665
4	372758	504.355956495793	0.000749580978
4	372761	504.356173805161	0.000217309368
4	372768	504.380922631182	0.024748826021
4	372771	504.38096170083	3.9069648e-05
4	372790	504.395135124682	0.014173423852
4	372797	504.414840425595	0.019705300913
4	372804	504.417362254885	0.00252182929
4	372807	504.423858262255	0.00649600737
4	372810	504.428525245641	0.004666983386
4	372825	504.446039502294	0.017514256653
4	372836	504.461456908993	0.015417406699
4	372839	504.462077704478	0.000620795485
4	372866	504.499904353481	0.037826649003
4	372887	504.508334931769	0.008430578288
4	372920	504.602769482061	0.094434550292
4	372931	504.629162248436	0.026392766375
4	372946	504.638784771224	0.009622522788
4	372973	504.665077482119	0.026292710895
4	372984	504.667267261872	0.002189779753
4	372999	504.67292188067	0.005654618798
4	373038	504.694564997924	0.021643117254
4	373041	504.698536154282	0.003971156358
4	373056	504.734469846267	0.035933691985
4	373119	504.807150606235	0.072680759968
4	373126	504.816798602563	0.009647996328
4	373161	504.844308973963	0.0275103714
4	373180	504.850966346287	0.006657372324
4	373185	504.851410561307	0.00044421502
4	373190	504.853676602495	0.002266041188
4	373197	504.8561781807	0.002501578205
4	373204	504.862268694042	0.006090513342
4	373245	504.895013980916	0.032745286874
4	373250	504.89543191271	0.000417931794
4	373279	504.910772462086	0.015340549376
4	373282	504.911279294354	0.000506832268
4	373287	504.914487429956	0.003208135602
4	373324	504.933595722721	0.019108292765
4	373329	504.934348164185	0.000752441464
4	373336	504.937621412131	0.003273247946
4	373339	504.937985882663	0.000364470532
4	373454	505.110907112276	0.172921229613
4	373481	505.177385502287	0.066478390011
4	373494	505.185451530504	0.008066028217
4	373507	505.194941444589	0.009489914085
4	373526	505.212966425666	0.018024981077
4	373533	505.215581097051	0.002614671385
4	373544	505.234835294	0.019254196949
4	373551	505.267895066275	0.033059772275
4	373578	505.300847308137	0.032952241862
4	373617	505.36117794504	0.060330636903
4	373636	505.394316232271	0.033138287231
4	373639	505.396274162536	0.001957930265
4	373652	505.451106073749	0.054831911213
4	373675	505.464721693456	0.013615619707
4	373686	505.469635701703	0.004914008247
4	373691	505.471142062169	0.001506360466
4	373694	505.47184627258	0.000704210411
4	373717	505.490219892122	0.018373619542
4	373724	505.510109207524	0.019889315402
4	373731	505.513635634512	0.003526426988
4	373742	505.52652490013	0.012889265618
4	373757	505.531024867042	0.004499966912
4	373776	505.555374248326	0.024349381284
4	373783	505.578515210728	0.023140962402
4	373804	505.638009655286	0.059494444558
4	373825	505.657373180654	0.019363525368
4	373832	505.659279729464	0.00190654881
4	373851	505.669479740265	0.010200010801
4	373854	505.669901214506	0.000421474241
4	373867	505.678027518279	0.008126303773
4	373880	505.688938765193	0.010911246914
4	373923	505.730082573213	0.04114380802
4	373978	505.86240994628	0.132327373067
4	373981	505.863560097006	0.001150150726
4	374012	505.913727114294	0.050167017288
4	374031	505.919833740087	0.006106625793
4	374038	505.921459456013	0.001625715926
4	374045	505.925045833693	0.00358637768
4	374114	505.996466000003	0.07142016631
4	374117	505.997081352627	0.000615352624
4	374129	506.000114588264	0.003033235637
4	374136	506.001012437519	0.000897849255
4	374179	506.02805791221	0.027045474691
4	374198	506.047128539874	0.019070627664
4	374213	506.054702892135	0.007574352261
4	374236	506.065792658606	0.011089766471
4	374243	506.066607192881	0.000814534275
4	374322	506.185863585429	0.119256392548
4	374329	506.18791627814	0.002052692711
4	374364	506.233594079631	0.045677801491
4	374371	506.236561176193	0.002967096562
4	374384	506.239468297171	0.002907120978
4	374387	506.239479382041	1.108487e-05
4	374390	506.24023351725	0.000754135209
4	374399	506.243266472954	0.003032955704
4	374402	506.244053976519	0.000787503565
4	374409	506.246305622743	0.002251646224
4	374424	506.256410215753	0.01010459301
4	374465	506.321517742484	0.065107526731
4	374484	506.327991062353	0.006473319869
4	374495	506.331034835511	0.003043773158
4	374500	506.33259469072	0.001559855209
4	374521	506.346096510244	0.013501819524
4	374532	506.347743407935	0.001646897691
4	374535	506.348102006349	0.000358598414
4	374538	506.348773156755	0.000671150406
4	374543	506.349228274891	0.000455118136
4	374546	506.349471331588	0.000243056697
4	374585	506.368653010294	0.019181678706
4	374636	506.409406108954	0.04075309866
4	374647	506.412819133858	0.003413024904
4	374678	506.425142087468	0.01232295361
4	374685	506.429427452892	0.004285365424
4	374688	506.429803872126	0.000376419234
4	374703	506.454198934253	0.024395062127
4	374714	506.470662071314	0.016463137061
4	374755	506.486108789726	0.015446718412
4	374760	506.48657286369	0.000464073964
4	374765	506.487321646055	0.000748782365
4	374768	506.488011918537	0.000690272482
4	374779	506.489948290528	0.001936371991
4	374788	506.494417824813	0.004469534285
4	374811	506.515865527035	0.021447702222
4	374818	506.520901918551	0.005036391516
4	374829	506.56059474226	0.039692823709
4	374844	506.572446980203	0.011852237943
4	374847	506.573188865669	0.000741885466
4	374862	506.587930150752	0.014741285083
4	374881	506.598465617438	0.010535466686
4	374916	506.664804364104	0.066338746666
4	374959	506.684726248565	0.019921884461
4	374974	506.705427996739	0.020701748174
4	374989	506.731478035183	0.026050038444
4	374996	506.740528261711	0.009050226528
4	375011	506.757297403338	0.016769141627
4	375018	506.76589016208	0.008592758742
4	375025	506.790524730842	0.024634568762
4	375040	506.809442709928	0.018917979086
4	375043	506.811910324851	0.002467614923
4	375050	506.815301895132	0.003391570281
4	375077	506.854626299073	0.039324403941
4	375090	506.866169588155	0.011543289082
4	375093	506.866287489581	0.000117901426
4	375102	506.871585906282	0.005298416701
4	375113	506.874246386299	0.002660480017
4	375163	507.023589612942	0.149343226643
4	375170	507.040106105313	0.016516492371
4	375173	507.041140824743	0.00103471943
4	375180	507.042328990023	0.00118816528
4	375195	507.055249676163	0.01292068614
4	375198	507.055600788674	0.000351112511
4	375203	507.057445687126	0.001844898452
4	375252	507.135408360954	0.077962673828
4	375267	507.186886743372	0.051478382418
4	375274	507.187642776903	0.000756033531
4	375303	507.206696114673	0.01905333777
4	375316	507.257607340527	0.050911225854
4	375343	507.357906808062	0.100299467535
4	375360	507.371524514398	0.013617706336
4	375373	507.374812431596	0.003287917198
4	375378	507.378562261637	0.003749830041
4	375387	507.387927319458	0.009365057821
4	375430	507.492854834438	0.10492751498
4	375441	507.515809692313	0.022954857875
4	375444	507.515820908204	1.1215891e-05
4	375451	507.530091025899	0.014270117695
4	375468	507.55607855198	0.025987526081
4	375471	507.55620104349	0.00012249151
4	375496	507.594885792808	0.038684749318
4	375515	507.605606140417	0.010720347609
4	375534	507.641806416172	0.036200275755
4	375537	507.641999354174	0.000192938002
4	375544	507.664364108017	0.022364753843
4	375555	507.697493570764	0.033129462747
4	375582	507.721036265266	0.023542694502
4	375593	507.723472502468	0.002436237202
4	375650	507.783246103624	0.059773601156
4	375655	507.787136238503	0.003890134879
4	375670	507.796441840533	0.00930560203
4	375675	507.798138168154	0.001696327621
4	375696	507.843659954539	0.045521786385
4	375711	507.855697628437	0.012037673898
4	375714	507.857005810637	0.0013081822
4	375761	507.882523396253	0.025517585616
4	375772	507.887226321085	0.004702924832
4	375775	507.887239378699	1.3057614e-05
4	375780	507.887879995519	0.00064061682
4	375789	507.892221582752	0.004341587233
4	375808	507.903516964818	0.011295382066
4	375819	507.928027714602	0.024510749784
4	375826	507.966510019095	0.038482304493
4	375829	507.966751179595	0.0002411605
4	375859	508.009412050363	0.042660870768
4	375906	508.067895986865	0.058483936502
4	375925	508.103392821255	0.03549683439
4	375928	508.105051498979	0.001658677724
4	375943	508.130807747631	0.025756248652
4	375988	508.190870210236	0.060062462605
4	376009	508.217338455621	0.026468245385
4	376022	508.224555039821	0.0072165842
4	376027	508.226552360655	0.001997320834
4	376046	508.277005188866	0.050452828211
4	376061	508.284734130859	0.007728941993
4	376064	508.285586150287	0.000852019428
4	376115	508.40591825247	0.120332102183
4	376138	508.476631066124	0.070712813654
4	376145	508.478017956511	0.001386890387
4	376200	508.540055242008	0.062037285497
4	376227	508.576965305737	0.036910063729
4	376250	508.592369652137	0.0154043464
4	376255	508.593816067998	0.001446415861
4	376268	508.597907567471	0.004091499473
4	376271	508.599879974257	0.001972406786
4	376274	508.601936634073	0.002056659816
4	376287	508.604696292807	0.002759658734
4	376320	508.638439126289	0.033742833482
4	376345	508.682884747217	0.044445620928
4	376378	508.724751963345	0.041867216128
4	376397	508.730992671666	0.006240708321
4	376436	508.782748246683	0.051755575017
4	376481	508.803782943742	0.021034697059
4	376484	508.804491092278	0.000708148536
4	376489	508.804793256135	0.000302163857
4	376534	508.861289524155	0.05649626802
4	376541	508.867552471429	0.006262947274
4	376594	508.918044194047	0.050491722618
4	376597	508.919084252583	0.001040058536
4	376608	508.929707146648	0.010622894065
4	376611	508.931289889575	0.001582742927
4	376702	508.998732426348	0.067442536773
4	376728	509.027928917708	0.02919649136
4	376743	509.053212656483	0.025283738775
4	376778	509.103091193449	0.049878536966
4	376781	509.103215498743	0.000124305294
4	376792	509.110338224783	0.00712272604
4	376803	509.128176812341	0.017838587558
4	376834	509.157066876006	0.028890063665
4	376869	509.260916632174	0.103849756168
4	376876	509.267186220255	0.006269588081
4	376879	509.26748982653	0.000303606275
4	376882	509.267714321217	0.000224494687
4	376917	509.35105927457	0.083344953353
4	376920	509.351488564153	0.000429289583
4	376923	509.351841868625	0.000353304472
4	376930	509.355297427719	0.003455559094
4	376937	509.359797540344	0.004500112625
4	376940	509.360257491601	0.000459951257
4	376943	509.361188548304	0.000931056703
4	376950	509.371706672623	0.010518124319
4	376969	509.380538942768	0.008832270145
4	377020	509.431418065241	0.050879122473
4	377043	509.443562512069	0.012144446828
4	377050	509.447026184439	0.00346367237
4	377073	509.475534818674	0.028508634235
4	377076	509.476557264029	0.001022445355
4	377079	509.477681525941	0.001124261912
4	377086	509.484246853839	0.006565327898
4	377103	509.498717452145	0.014470598306
4	377110	509.503235692144	0.004518239999
4	377147	509.618804677308	0.115568985164
4	377206	509.744131915916	0.125327238608
4	377213	509.748971387839	0.004839471923
4	377224	509.757117435127	0.008146047288
4	377247	509.828130352455	0.071012917328
4	377280	509.845419557922	0.017289205467
4	377287	509.846422872934	0.001003315012
4	377320	509.861499841431	0.015076968497
4	377351	509.899168641531	0.0376688001
4	377362	509.902150768021	0.00298212649
4	377385	509.956174552235	0.054023784214
4	377442	510.076976230835	0.1208016786
4	377451	510.093447188298	0.016470957463
4	377462	510.108649964099	0.015202775801
4	377469	510.131004633796	0.022354669697
4	377512	510.179687949867	0.048683316071
4	377515	510.180377742778	0.000689792911
4	377522	510.185505776726	0.005128033948
4	377529	510.190042493118	0.004536716392
4	377560	510.267160393705	0.077117900587
4	377569	510.271742282759	0.004581889054
4	377580	510.276840099731	0.005097816972
4	377583	510.276906972925	6.6873194e-05
4	377588	510.278065374937	0.001158402012
4	377647	510.334765754186	0.056700379249
4	377662	510.344302817447	0.009537063261
4	377717	510.454630716636	0.110327899189
4	377740	510.48010942212	0.025478705484
4	377747	510.482965903291	0.002856481171
4	377750	510.485050779353	0.002084876062
4	377765	510.502820282216	0.017769502863
4	377780	510.534657670164	0.031837387948
4	377783	510.535047335298	0.000389665134
4	377818	510.58759739621	0.052550060912
4	377841	510.641878655612	0.054281259402
4	377856	510.662492600057	0.020613944445
4	377867	510.669606398073	0.007113798016
4	377870	510.669724395992	0.000117997919
4	377929	510.770890351879	0.101165955887
4	377952	510.798686005708	0.027795653829
4	377963	510.801733677416	0.003047671708
4	377970	510.806601354683	0.004867677267
4	377985	510.818045913731	0.011444559048
4	377988	510.819378513666	0.001332599935
4	378015	510.843660917858	0.024282404192
4	378024	510.847959241699	0.004298323841
4	378087	510.890726563133	0.042767321434
4	378238	511.186601928462	0.295875365329
4	378249	511.229512247988	0.042910319526
4	378272	511.282381130236	0.052868882248
4	378279	511.29271976976	0.010338639524
4	378282	511.292777558352	5.7788592e-05
4	378305	511.30530436207	0.012526803718
4	378324	511.321729984189	0.016425622119
4	378339	511.347216461281	0.025486477092
4	378366	511.362245317493	0.015028856212
4	378377	511.364670077555	0.002424760062
4	378400	511.372263405484	0.007593327929
4	378415	511.387218641042	0.014955235558
4	378440	511.411561735519	0.024343094477
4	378449	511.415055181795	0.003493446276
4	378464	511.417925804459	0.002870622664
4	378471	511.421125116169	0.00319931171
4	378516	511.463733554689	0.04260843852
4	378521	511.465585666356	0.001852111667
4	378540	511.521713625594	0.056127959238
4	378567	511.573231490447	0.051517864853
4	378590	511.590917558006	0.017686067559
4	378593	511.591093769881	0.000176211875
4	378650	511.645457304559	0.054363534678
4	378667	511.659253435965	0.013796131406
4	378730	511.718269069961	0.059015633996
4	378773	511.757159383933	0.038890313972
4	378816	511.798496719619	0.041337335686
4	378819	511.798641536657	0.000144817038
4	378828	511.801132469702	0.002490933045
4	378841	511.856452610921	0.055320141219
4	378852	511.865415221052	0.008962610131
4	378859	511.897343817072	0.03192859602
4	378870	511.933276089306	0.035932272234
4	378877	511.938427937754	0.005151848448
4	378932	511.985060204719	0.046632266965
4	378943	511.995227988182	0.010167783463
4	378946	511.995903921326	0.000675933144
4	379050	512.115647957404	0.119744036078
4	379057	512.119601614072	0.003953656668
4	379060	512.119830088424	0.000228474352
4	379063	512.120285761611	0.000455673187
4	379076	512.170449808043	0.050164046432
4	379119	512.222902353682	0.052452545639
4	379172	512.353547884548	0.130645530866
4	379177	512.354730795676	0.001182911128
4	379204	512.366945885068	0.012215089392
4	379219	512.373411087937	0.006465202869
4	379234	512.384454318972	0.011043231035
4	379249	512.389898642695	0.005444323723
4	379252	512.390754508979	0.000855866284
4	379259	512.397051210741	0.006296701762
4	379274	512.414560236039	0.017509025298
4	379283	512.417469679411	0.002909443372
4	379338	512.484370689508	0.066901010097
4	379367	512.509479410486	0.025108720978
4	379370	512.510992202167	0.001512791681
4	379393	512.518760389091	0.007768186924
4	379400	512.521177864197	0.002417475106
4	379411	512.531183335474	0.010005471277
4	379426	512.561841638686	0.030658303212
4	379457	512.601140837634	0.039299198948
4	379476	512.660208865868	0.059068028234
4	379483	512.664210923346	0.004002057478
4	379518	512.697636675919	0.033425752573
4	379569	512.800694251664	0.103057575745
4	379580	512.828437722742	0.027743471078
4	379587	512.832445831455	0.004008108713
4	379594	512.83891440353	0.006468572075
4	379617	512.859645309872	0.020730906342
4	379638	512.885804528368	0.026159218496
4	379641	512.886202605895	0.000398077527
4	379662	512.90568626371	0.019483657815
4	379665	512.906985521606	0.001299257896
4	379672	512.911178996222	0.004193474616
4	379687	512.928992336003	0.017813339781
4	379710	512.936006016302	0.007013680299
4	379715	512.937605597939	0.001599581637
4	379718	512.938030355125	0.000424757186
4	379750	513.006461004224	0.068430649099
4	379761	513.045541354965	0.039080350741
4	379788	513.088390001802	0.042848646837
4	379807	513.096000993625	0.007610991823
4	379810	513.096790041838	0.000789048213
4	379813	513.097116738283	0.000326696445
4	379820	513.111442301197	0.014325562914
4	379827	513.116952078917	0.00550977772
4	379868	513.163236508191	0.046284429274
4	379885	513.185318477901	0.02208196971
4	379904	513.20137881704	0.016060339139
4	379931	513.222816230029	0.021437412989
4	379942	513.227508225168	0.004691995139
4	379993	513.330598155283	0.103089930115
4	380020	513.362236766298	0.031638611015
4	380051	513.374415610839	0.012178844541
4	380074	513.417331557378	0.042915946539
4	380093	513.456624592561	0.039293035183
4	380104	513.46472249564	0.008097903079
4	380211	513.593003252008	0.128280756368
4	380214	513.593277033567	0.000273781559
4	380233	513.611807513207	0.01853047964
4	380252	513.652627982911	0.040820469704
4	380269	513.657049411009	0.004421428098
4	380278	513.658594939495	0.001545528486
4	380291	513.665142042791	0.006547103296
4	380304	513.667764954223	0.002622911432
4	380315	513.67231359319	0.004548638967
4	380328	513.677943193748	0.005629600558
4	380337	513.681406133868	0.00346294012
4	380356	513.746209279093	0.064803145225
4	380363	513.75211135009	0.005902070997
4	380378	513.833055847982	0.080944497892
4	380429	513.909263753474	0.076207905492
4	380436	513.913419984186	0.004156230712
4	380443	513.934083350448	0.020663366262
4	380462	513.944512076641	0.010428726193
4	380469	513.946979590072	0.002467513431
4	380472	513.947683496109	0.000703906037
4	380487	513.962629502814	0.014946006705
4	380541	514.046933436459	0.084303933645
4	380616	514.18153514167	0.134601705211
4	380655	514.256748874965	0.075213733295
4	380692	514.340923824611	0.084174949646
4	380705	514.347593398626	0.006669574015
4	380716	514.362625186348	0.015031787722
4	380719	514.363343850194	0.000718663846
4	380748	514.428005414981	0.064661564787
4	380753	514.428237160307	0.000231745326
4	380784	514.448091987473	0.019854827166
4	380795	514.467956554051	0.019864566578
4	380848	514.498601996843	0.030645442792
4	380855	514.499694531916	0.001092535073
4	380864	514.507107158108	0.007412626192
4	380867	514.507166015438	5.885733e-05
4	380894	514.595080610184	0.087914594746
4	380897	514.595703677008	0.000623066824
4	380912	514.606221851894	0.010518174886
4	380927	514.666603881975	0.060382030081
4	380946	514.718321716697	0.051717834722
4	380957	514.730467317537	0.01214560084
4	380972	514.783857948715	0.053390631178
4	381003	514.885379362725	0.10152141401
4	381010	514.893555193203	0.008175830478
4	381013	514.894847935387	0.001292742184
4	381080	514.942984034457	0.04813609907
4	381099	514.954860674276	0.011876639819
4	381102	514.955087316218	0.000226641942
4	381105	514.955097211395	9.895177e-06
4	381108	514.955962676082	0.000865464687
4	381151	514.985303795906	0.029341119824
4	381158	514.988114322772	0.002810526866
4	381213	515.050026734474	0.061912411702
4	381220	515.051178717341	0.001151982867
4	381239	515.064234336048	0.013055618707
4	381258	515.135955561424	0.071721225376
4	381269	515.157713549061	0.021757987637
4	381280	515.168724320176	0.011010771115
4	381283	515.168975004257	0.000250684081
4	381294	515.189405163439	0.020430159182
4	381337	515.340551732052	0.151146568613
4	381344	515.348310314977	0.007758582925
4	381403	515.433980866874	0.085670551897
4	381418	515.452601659954	0.01862079308
4	381427	515.454299755934	0.00169809598
4	381440	515.457290328346	0.002990572412
4	381445	515.458212866126	0.00092253778
4	381486	515.492494378238	0.034281512112
4	381497	515.497132150032	0.004637771794
4	381530	515.555712794792	0.05858064476
4	381533	515.556682097913	0.000969303121
4	381536	515.557437061665	0.000754963752
4	381557	515.596045707131	0.038608645466
4	381564	515.620521696504	0.024475989373
4	381579	515.627509388462	0.006987691958
4	381586	515.632224836009	0.004715447547
4	381589	515.633136030025	0.000911194016
4	381604	515.637105405098	0.003969375073
4	381635	515.651771862403	0.014666457305
4	381658	515.66484221124	0.013070348837
4	381673	515.672366699535	0.007524488295
4	381700	515.698381745808	0.026015046273
4	381715	515.764778527204	0.066396781396
4	381730	515.797680314744	0.03290178754
4	381737	515.810863685983	0.013183371239
4	381782	515.892767505281	0.081903819298
4	381868	516.023450244355	0.130682739074
4	381893	516.049669990974	0.026219746619
4	381898	516.050904766029	0.001234775055
4	381919	516.08664562899	0.035740862961
4	381926	516.0983260929	0.01168046391
4	381933	516.131270174997	0.032944082097
4	381948	516.17368320258	0.042413027583
4	381965	516.183467856286	0.009784653706
4	382014	516.237728346476	0.05426049019
4	382041	516.265403165791	0.027674819315
4	382046	516.268722351247	0.003319185456
4	382067	516.314339382089	0.045617030842
4	382070	516.316043265106	0.001703883017
4	382077	516.321177900192	0.005134635086
4	382116	516.357045258975	0.035867358783
4	382119	516.357425753953	0.000380494978
4	382138	516.396652266033	0.03922651208
4	382169	516.448199549321	0.051547283288
4	382200	516.487258913729	0.039059364408
4	382219	516.508017461681	0.020758547952
4	382226	516.511417576433	0.003400114752
4	382229	516.511666750722	0.000249174289
4	382272	516.600327616751	0.088660866029
4	382287	516.61501001979	0.014682403039
4	382294	516.62002092841	0.00501090862
4	382305	516.62992777238	0.00990684397
4	382308	516.630410346838	0.000482574458
4	382319	516.64233840133	0.011928054492
4	382334	516.649897949425	0.007559548095
4	382337	516.650336091277	0.000438141852
4	382344	516.655253287053	0.004917195776
4	382351	516.658164463197	0.002911176144
4	382354	516.660389816197	0.002225353
4	382373	516.677017232615	0.016627416418
4	382388	516.692773616408	0.015756383793
4	382423	516.769018482902	0.076244866494
4	382430	516.774007273869	0.004988790967
4	382461	516.874065093767	0.100057819898
4	382472	516.908630977421	0.034565883654
4	382499	516.95196311734	0.043332139919
4	382510	516.963851051286	0.011887933946
4	382529	516.973129139546	0.00927808826
4	382575	517.049945420845	0.076816281299
4	382590	517.097137117059	0.047191696214
4	382623	517.12466984431	0.027532727251
4	382626	517.124920926263	0.000251081953
4	382631	517.125770605139	0.000849678876
4	382634	517.125902543181	0.000131938042
4	382665	517.152325478022	0.026422934841
4	382672	517.159672579409	0.007347101387
4	382683	517.164080476408	0.004407896999
4	382722	517.228466513764	0.064386037356
4	382745	517.256532344277	0.028065830513
4	382748	517.256547858475	1.5514198e-05
4	382751	517.258283085129	0.001735226654
4	382754	517.26324113031	0.004958045181
4	382761	517.266070811317	0.002829681007
4	382828	517.364427458991	0.098356647674
4	382843	517.371225671022	0.006798212031
4	382870	517.408439468782	0.03721379776
4	382873	517.40846383217	2.4363388e-05
4	382888	517.42111996165	0.01265612948
4	382983	517.632581226639	0.211461264989
4	383014	517.677090017809	0.04450879117
4	383017	517.677623781498	0.000533763689
4	383028	517.687482756061	0.009858974563
4	383035	517.689715456405	0.002232700344
4	383050	517.717181132115	0.02746567571
4	383057	517.718392109236	0.001210977121
4	383088	517.760728515311	0.042336406075
4	383095	517.761953914688	0.001225399377
4	383110	517.778061879675	0.016107964987
4	383139	517.812816635573	0.034754755898
4	383172	517.860099810324	0.047283174751
4	383183	517.868858887695	0.008759077371
4	383190	517.881021251904	0.012162364209
4	383193	517.881130729837	0.000109477933
4	383196	517.882005984075	0.000875254238
4	383223	517.914573463602	0.032567479527
4	383226	517.914641214884	6.7751282e-05
4	383249	517.963924903021	0.049283688137
4	383260	517.973425592832	0.009500689811
4	383294	518.037945039257	0.064519446425
4	383305	518.047966810717	0.01002177146
4	383316	518.052704813108	0.004738002391
4	383331	518.06473595377	0.012031140662
4	383348	518.091019070822	0.026283117052
4	383357	518.094389605618	0.003370534796
4	383384	518.143077291189	0.048687685571
4	383395	518.165857659624	0.022780368435
4	383410	518.192631936489	0.026774276865
4	383427	518.21441696119	0.021785024701
4	383430	518.214551270572	0.000134309382
4	383491	518.294954917727	0.080403647155
4	383506	518.302147739465	0.007192821738
4	383509	518.303763558024	0.001615818559
4	383594	518.404967375181	0.101203817157
4	383597	518.405345076484	0.000377701303
4	383602	518.4079535323	0.002608455816
4	383615	518.413092771658	0.005139239358
4	383628	518.425331598405	0.012238826747
4	383643	518.435418948294	0.010087349889
4	383670	518.463611841853	0.028192893559
4	383721	518.506477371289	0.042865529436
4	383736	518.532764652686	0.026287281397
4	383749	518.543168358166	0.01040370548
4	383774	518.56303853114	0.019870172974
4	383777	518.563208187144	0.000169656004
4	383792	518.575162777203	0.011954590059
4	383817	518.609600260731	0.034437483528
4	383822	518.611624295489	0.002024034758
4	383837	518.628998464893	0.017374169404
4	383848	518.633127700753	0.00412923586
4	383911	518.740490258115	0.107362557362
4	383918	518.749265026532	0.008774768417
4	383925	518.754834636981	0.005569610449
4	383952	518.796326171674	0.041491534693
4	383971	518.844671237626	0.048345065952
4	383994	518.89263681123	0.047965573604
4	383997	518.893647396781	0.001010585551
4	384032	518.904666280116	0.011018883335
4	384099	518.982579668703	0.077913388587
4	384106	518.985814716402	0.003235047699
4	384109	518.986605583341	0.000790866939
4	384112	518.986998181948	0.000392598607
4	384131	518.998304885571	0.011306703623
4	384213	519.049475560219	0.051170674648
4	384220	519.079662321837	0.030186761618
4	384227	519.087709454528	0.008047132691
4	384230	519.090400001862	0.002690547334
4	384277	519.149397438676	0.058997436814
4	384300	519.171935818988	0.022538380312
4	384327	519.322388987177	0.150453168189
4	384354	519.347381566783	0.024992579606
4	384373	519.353055410027	0.005673843244
4	384380	519.359607546929	0.006552136902
4	384395	519.365245847877	0.005638300948
4	384402	519.368227257835	0.002981409958
4	384405	519.370249771846	0.002022514011
4	384408	519.370527881407	0.000278109561
4	384467	519.458723217426	0.088195336019
4	384486	519.537544291874	0.078821074448
4	384513	519.594249004336	0.056704712462
4	384520	519.597331355095	0.003082350759
4	384579	519.766943673408	0.169612318313
4	384590	519.779595012632	0.012651339224
4	384609	519.790322935172	0.01072792254
4	384620	519.826038035988	0.035715100816
4	384643	519.847311181814	0.021273145826
4	384702	519.918520906084	0.07120972427
4	384711	519.925353405302	0.006832499218
4	384762	520.027180300723	0.101826895421
4	384787	520.043831270965	0.016650970242
4	384814	520.062460227729	0.018628956764
4	384857	520.093852061437	0.031391833708
4	384864	520.097545062117	0.00369300068
4	384883	520.111697555428	0.014152493311
4	384910	520.170839401988	0.05914184656
4	384965	520.248165861691	0.077326459703
4	384968	520.249037708459	0.000871846768
4	385035	520.380702696217	0.131664987758
4	385040	520.381820886594	0.001118190377
4	385047	520.384005772847	0.002184886253
4	385052	520.388251228491	0.004245455644
4	385075	520.42333485841	0.035083629919
4	385078	520.423471862884	0.000137004474
4	385081	520.423782127225	0.000310264341
4	385094	520.443994997298	0.020212870073
4	385099	520.447503224925	0.003508227627
4	385110	520.450123509152	0.002620284227
4	385139	520.499291293409	0.049167784257
4	385164	520.523844836849	0.02455354344
4	385167	520.524340769755	0.000495932906
4	385186	520.532663837824	0.008323068069
4	385201	520.596920858903	0.064257021079
4	385208	520.620841730707	0.023920871804
4	385219	520.629553075645	0.008711344938
4	385226	520.644343671337	0.014790595692
4	385229	520.645994308222	0.001650636885
4	385274	520.707135415224	0.061141107002
4	385277	520.708919153836	0.001783738612
4	385286	520.732135462567	0.023216308731
4	385301	520.739716645207	0.00758118264
4	385336	520.81332150311	0.073604857903
4	385485	521.061875521791	0.248554018681
4	385542	521.1352243608	0.073348839009
4	385553	521.144834544216	0.009610183416
4	385578	521.157214704697	0.012380160481
4	385605	521.316502996585	0.159288291888
4	385618	521.332244065414	0.015741068829
4	385627	521.334516474424	0.00227240901
4	385650	521.373215737848	0.038699263424
4	385669	521.412498547343	0.039282809495
4	385676	521.416319523079	0.003820975736
4	385693	521.42600386735	0.009684344271
4	385698	521.427959763528	0.001955896178
4	385701	521.42864419961	0.000684436082
4	385736	521.447015382632	0.018371183022
4	385767	521.49020750214	0.043192119508
4	385770	521.490523760945	0.000316258805
4	385773	521.491368345576	0.000844584631
4	385794	521.504248423967	0.012880078391
4	385811	521.516522778494	0.012274354527
4	385826	521.540570009673	0.024047231179
4	385831	521.543176630872	0.002606621199
4	385846	521.546078789097	0.002902158225
4	385853	521.547683262463	0.001604473366
4	385874	521.559660720782	0.011977458319
4	385893	521.567997497212	0.00833677643
4	385900	521.570514126698	0.002516629486
4	385927	521.610895864506	0.040381737808
4	385932	521.612754598756	0.00185873425
4	385949	521.626314147795	0.013559549039
4	385976	521.720103024665	0.09378887687
4	385995	521.748523471555	0.02842044689
4	385998	521.750114131594	0.001590660039
4	386009	521.752975984823	0.002861853229
4	386030	521.766786845886	0.013810861063
4	386035	521.767581896012	0.000795050126
4	386060	521.794620906537	0.027039010525
4	386077	521.805671984765	0.011051078228
4	386132	521.883418236969	0.077746252204
4	386181	521.927339218275	0.043920981306
4	386188	521.929459626811	0.002120408536
4	386193	521.932763268532	0.003303641721
4	386200	521.933255902031	0.000492633499
4	386211	521.951157009231	0.0179011072
4	386224	521.958178430484	0.007021421253
4	386261	521.999395575607	0.041217145123
4	386283	522.009130123796	0.009734548189
4	386286	522.009142252352	1.2128556e-05
4	386317	522.037048113968	0.027905861616
4	386332	522.044342161156	0.007294047188
4	386367	522.076899522712	0.032557361556
4	386406	522.108931033024	0.032031510312
4	386425	522.133947393855	0.025016360831
4	386436	522.142517797606	0.008570403751
4	386463	522.157594436186	0.01507663858
4	386488	522.176294290673	0.018699854487
4	386491	522.176340200943	4.591027e-05
4	386494	522.177312711747	0.000972510804
4	386527	522.218768805938	0.041456094191
4	386544	522.245204972217	0.026436166279
4	386597	522.342092207672	0.096887235455
4	386600	522.342508419658	0.000416211986
4	386623	522.369744240347	0.027235820689
4	386634	522.385404207374	0.015659967027
4	386657	522.39371195736	0.008307749986
4	386660	522.395009643614	0.001297686254
4	386671	522.398812363948	0.003802720334
4	386678	522.416288729023	0.017476365075
4	386681	522.418472553394	0.002183824371
4	386708	522.440840104614	0.02236755122
4	386711	522.441069141097	0.000229036483
4	386746	522.484681174882	0.043612033785
4	386757	522.49205310223	0.007371927348
4	386768	522.501622083498	0.009568981268
4	386771	522.501628483059	6.399561e-06
4	386778	522.506442575238	0.004814092179
4	386789	522.513388798853	0.006946223615
4	386804	522.525079024433	0.01169022558
4	386831	522.548704755215	0.023625730782
4	386838	522.55566766419	0.006962908975
4	386859	522.580929220837	0.025261556647
4	386894	522.603419195601	0.022489974764
4	386897	522.60479350969	0.001374314089
4	386972	522.679968122284	0.075174612594
4	386975	522.680421586167	0.000453463883
4	387008	522.70830587174	0.027884285573
4	387027	522.724394260971	0.016088389231
4	387060	522.7440126071	0.019618346129
4	387117	522.842622190174	0.098609583074
4	387124	522.852868032741	0.010245842567
4	387131	522.868965246156	0.016097213415
4	387138	522.881788858204	0.012823612048
4	387149	522.896388822443	0.014599964239
4	387160	522.904664649566	0.008275827123
4	387203	522.93068905532	0.026024405754
4	387216	522.936856667027	0.006167611707
4	387221	522.937271227563	0.000414560536
4	387244	522.974223638553	0.03695241099
4	387274	523.00877152374	0.034547885187
4	387293	523.089058168677	0.080286644937
4	387296	523.089465698135	0.000407529458
4	387375	523.208625606458	0.119159908323
4	387378	523.209281582195	0.000655975737
4	387385	523.211673100466	0.002391518271
4	387420	523.293509687071	0.081836586605
4	387435	523.311687011999	0.018177324928
4	387466	523.334970276497	0.023283264498
4	387469	523.335535043564	0.000564767067
4	387484	523.366092805623	0.030557762059
4	387487	523.367016035987	0.000923230364
4	387494	523.369095247217	0.00207921123
4	387501	523.375672473674	0.006577226457
4	387518	523.417942899628	0.042270425954
4	387527	523.419585712347	0.001642812719
4	387570	523.502021616833	0.082435904486
4	387581	523.512857082002	0.010835465169
4	387584	523.512901145651	4.4063649e-05
4	387591	523.521018562147	0.008117416496
4	387596	523.522180773371	0.001162211224
4	387613	523.529987778623	0.007807005252
4	387616	523.530680799127	0.000693020504
4	387639	523.571718183785	0.041037384658
4	387662	523.606953921238	0.035235737453
4	387669	523.617253724119	0.010299802881
4	387680	523.625696086248	0.008442362129
4	387691	523.630349138883	0.004653052635
4	387756	523.738781293025	0.108432154142
4	387759	523.74049901325	0.001717720225
4	387762	523.741395887043	0.000896873793
4	387767	523.742816470998	0.001420583955
4	387770	523.743289956813	0.000473485815
4	387785	523.750231125162	0.006941168349
4	387788	523.753905730949	0.003674605787
4	387799	523.779200274961	0.025294544012
4	387822	523.803967887181	0.02476761222
4	387833	523.81189630757	0.007928420389
4	387836	523.812606056007	0.000709748437
4	387839	523.814079449236	0.001473393229
4	387872	523.855862354839	0.041782905603
4	387921	523.892883559669	0.03702120483
4	387944	523.9300423143	0.037158754631
4	387959	523.940376642583	0.010334328283
4	387990	523.968985714334	0.028609071751
4	387993	523.969629465924	0.00064375159
4	387996	523.969778445068	0.000148979144
4	388003	523.972812831758	0.00303438669
4	388018	523.979775366727	0.006962534969
4	388052	524.010173157773	0.030397791046
4	388075	524.043104155397	0.032930997624
4	388102	524.160035030033	0.116930874636
4	388117	524.166241923636	0.006206893603
4	388124	524.169503104981	0.003261181345
4	388147	524.194007198745	0.024504093764
4	388178	524.224739126676	0.030731927931
4	388259	524.328970566987	0.104231440311
4	388262	524.330472324727	0.00150175774
4	388271	524.334188340052	0.003716015325
4	388294	524.370674829736	0.036486489684
4	388305	524.374429754984	0.003754925248
4	388320	524.387053593364	0.01262383838
4	388367	524.483899474879	0.096845881515
4	388422	524.55252764952	0.068628174641
4	388429	524.556432365665	0.003904716145
4	388456	524.571606887479	0.015174521814
4	388471	524.587645285617	0.016038398138
4	388474	524.587738425231	9.3139614e-05
4	388479	524.591566753474	0.003828328243
4	388488	524.596221458453	0.004654704979
4	388499	524.607358790246	0.011137331793
4	388502	524.609818280572	0.002459490326
4	388511	524.626821158808	0.017002878236
4	388564	524.703803455269	0.076982296461
4	388579	524.72497909545	0.021175640181
4	388626	524.788443269691	0.063464174241
4	388645	524.822707618164	0.034264348473
4	388648	524.825297493419	0.002589875255
4	388651	524.825692735365	0.000395241946
4	388666	524.877017127065	0.0513243917
4	388693	524.935291124816	0.058273997751
4	388710	525.00561170076	0.070320575944
4	388713	525.00700967809	0.00139797733
4	388716	525.008481139903	0.001471461813
4	388737	525.013844031804	0.005362891901
4	388752	525.032878925054	0.01903489325
4	388767	525.037817471017	0.004938545963
4	388774	525.057482988256	0.019665517239
4	388789	525.075937696335	0.018454708079
4	388800	525.102232617413	0.026294921078
4	388823	525.112117051656	0.009884434243
4	388830	525.113204739566	0.00108768791
4	388849	525.158239634	0.045034894434
4	388900	525.247249598393	0.089009964393
4	388911	525.254239598145	0.006989999752
4	388942	525.344814705068	0.090575106923
4	388945	525.345175431238	0.00036072617
4	388952	525.349879357143	0.004703925905
4	388971	525.389834693617	0.039955336474
4	389006	525.502148982284	0.112314288667
4	389041	525.573018318114	0.07086933583
4	389058	525.582132271523	0.009113953409
4	389071	525.586234449908	0.004102178385
4	389074	525.587853086719	0.001618636811
4	389081	525.590714062094	0.002860975375
4	389086	525.593835875447	0.003121813353
4	389093	525.59726475138	0.003428875933
4	389120	525.609596648647	0.012331897267
4	389149	525.629893909226	0.020297260579
4	389204	525.781957427445	0.152063518219
4	389211	525.805658996468	0.023701569023
4	389216	525.809904068587	0.004245072119
4	389227	525.814176279213	0.004272210626
4	389256	525.844472440532	0.030296161319
4	389259	525.844502614951	3.0174419e-05
4	389262	525.845500931731	0.00099831678
4	389277	525.854917757663	0.009416825932
4	389288	525.860144060485	0.005226302822
4	389301	525.872485745691	0.012341685206
4	389314	525.882784625471	0.01029887978
4	389329	525.892498519522	0.009713894051
4	389356	525.930888317782	0.03838979826
4	389379	525.947124137626	0.016235819844
4	389384	525.948349403785	0.001225266159
4	389397	525.998535256899	0.050185853114
4	389407	526.034488432677	0.035953175778
4	389414	526.038244168859	0.003755736182
4	389449	526.084469954088	0.046225785229
4	389458	526.092254718066	0.007784763978
4	389463	526.093487584649	0.001232866583
4	389468	526.094639792765	0.001152208116
4	389505	526.137630562756	0.042990769991
4	389520	526.152728817691	0.015098254935
4	389535	526.202534101051	0.04980528336
4	389578	526.248449736237	0.045915635186
4	389587	526.254987108216	0.006537371979
4	389646	526.393176180369	0.138189072153
4	389649	526.393551619123	0.000375438754
4	389666	526.408917371689	0.015365752566
4	389679	526.41596016389	0.007042792201
4	389682	526.416392857697	0.000432693807
4	389687	526.418196505411	0.001803647714
4	389754	526.539070797662	0.120874292251
4	389793	526.571134909669	0.032064112007
4	389808	526.588437278042	0.017302368373
4	389841	526.659975141784	0.071537863742
4	389858	526.664617975166	0.004642833382
4	389905	526.771582216973	0.106964241807
4	389952	526.836227390671	0.064645173698
4	389955	526.837462103802	0.001234713131
4	389958	526.841910971392	0.00444886759
4	389977	526.856165756566	0.014254785174
4	390000	526.889359916759	0.033194160193
4	390029	526.916987390065	0.027627473306
4	390157	527.125241618069	0.208254228004
4	390160	527.125539274873	0.000297656804
4	390171	527.164569816793	0.03903054192
4	390178	527.185573535368	0.021003718575
4	390181	527.187417975016	0.001844439648
4	390218	527.201218348015	0.013800372999
4	390221	527.20124027481	2.1926795e-05
4	390226	527.202358017955	0.001117743145
4	390253	527.245217387769	0.042859369814
4	390272	527.274000081174	0.028782693405
4	390299	527.288457307982	0.014457226808
4	390302	527.289041454796	0.000584146814
4	390321	527.322105993343	0.033064538547
4	390328	527.335815239547	0.013709246204
4	390335	527.344550332637	0.00873509309
4	390338	527.346661967232	0.002111634595
4	390441	527.466988240483	0.120326273251
4	390448	527.473269671999	0.006281431516
4	390455	527.476072321563	0.002802649564
4	390506	527.567720504008	0.091648182445
4	390557	527.649387444899	0.081666940891
4	390582	527.673994742603	0.024607297704
4	390595	527.677788802001	0.003794059398
4	390698	527.856563080999	0.178774278998
4	390705	527.862206900806	0.005643819807
4	390722	527.872233083675	0.010026182869
4	390727	527.874238522974	0.002005439299
4	390738	527.883652693663	0.009414170689
4	390765	527.921530230534	0.037877536871
4	390792	527.935069936373	0.013539705839
4	390811	527.942815727109	0.007745790736
4	390814	527.943274667035	0.000458939926
4	390869	527.999884038983	0.056609371948
4	390881	528.001196656306	0.001312617323
4	390894	528.006949505329	0.005752849023
4	390925	528.094078315949	0.08712881062
4	390966	528.182080139426	0.088001823477
4	390975	528.187723293506	0.00564315408
4	390994	528.198503123239	0.010779829733
4	390997	528.198637880445	0.000134757206
4	391012	528.210822867601	0.012184987156
4	391047	528.225770571736	0.014947704135
4	391056	528.228154129604	0.002383557868
4	391069	528.235748757097	0.007594627493
4	391108	528.285977215041	0.050228457944
4	391131	528.30789372618	0.021916511139
4	391134	528.309581510222	0.001687784042
4	391155	528.327061881705	0.017480371483
4	391158	528.327545257308	0.000483375603
4	391175	528.341766617215	0.014221359907
4	391186	528.347795730444	0.006029113229
4	391197	528.370842509969	0.023046779525
4	391228	528.405364196187	0.034521686218
4	391243	528.414115479998	0.008751283811
4	391254	528.454224348945	0.040108868947
4	391269	528.475837884888	0.021613535943
4	391276	528.508108848013	0.032270963125
4	391279	528.508176548307	6.7700294e-05
4	391332	528.661918145502	0.153741597195
4	391361	528.692662038689	0.030743893187
4	391380	528.707556987759	0.01489494907
4	391383	528.711627150031	0.004070162272
4	391438	528.73613230485	0.024505154819
4	391449	528.758350396926	0.022218092076
4	391452	528.758702611869	0.000352214943
4	391493	528.785309533868	0.026606921999
4	391502	528.790888928907	0.005579395039
4	391511	528.792411680244	0.001522751337
4	391516	528.793470589908	0.001058909664
4	391525	528.800389292957	0.006918703049
4	391528	528.801324480675	0.000935187718
4	391535	528.804641450573	0.003316969898
4	391548	528.818128421515	0.013486970942
4	391555	528.822360432636	0.004232011121
4	391564	528.829653125873	0.007292693237
4	391577	528.857003170038	0.027350044165
4	391608	528.883010316664	0.026007146626
4	391643	528.902118598709	0.019108282045
4	391650	528.903803541446	0.001684942737
4	391653	528.906144738476	0.00234119703
4	391656	528.908428311879	0.002283573403
4	391663	528.915053667838	0.006625355959
4	391678	528.943065458159	0.028011790321
4	391693	528.949446529917	0.006381071758
4	391708	528.961248009041	0.011801479124
4	391760	529.003878615402	0.042630606361
4	391767	529.008470642718	0.004592027316
4	391776	529.016157591525	0.007686948807
4	391803	529.05826383562	0.042106244095
4	391838	529.121830917955	0.063567082335
4	391841	529.123705771876	0.001874853921
4	391864	529.172920861285	0.049215089409
4	391871	529.174501288045	0.00158042676
4	391874	529.174926835942	0.000425547897
4	391921	529.203067173025	0.028140337083
4	391932	529.204235087829	0.001167914804
4	391939	529.208045067149	0.00380997932
4	391958	529.218951016273	0.010905949124
4	392013	529.300988121314	0.082037105041
4	392016	529.301029522876	4.1401562e-05
4	392023	529.302120770521	0.001091247645
4	392030	529.308302176119	0.006181405598
4	392065	529.448548690165	0.140246514046
4	392070	529.454912636573	0.006363946408
4	392115	529.565363430674	0.110450794101
4	392154	529.586010130387	0.020646699713
4	392221	529.670493493501	0.084483363114
4	392228	529.67185149219	0.001357998689
4	392231	529.676787057862	0.004935565672
4	392246	529.702113244544	0.025326186682
4	392281	529.736167300411	0.034054055867
4	392332	529.792264549773	0.056097249362
4	392351	529.808381064836	0.016116515063
4	392354	529.808674528174	0.000293463338
4	392361	529.812036472618	0.003361944444
4	392364	529.812419305426	0.000382832808
4	392511	530.099126777327	0.286707471901
4	392534	530.133413544927	0.0342867676
4	392537	530.133700635733	0.000287090806
4	392552	530.141165687762	0.007465052029
4	392567	530.152535725881	0.011370038119
4	392580	530.15794110599	0.005405380109
4	392621	530.238286806551	0.080345700561
4	392634	530.249962513294	0.011675706743
4	392643	530.258001146464	0.00803863317
4	392648	530.258268384844	0.00026723838
4	392657	530.262691593724	0.00442320888
4	392664	530.265145517982	0.002453924258
4	392691	530.281969526199	0.016824008217
4	392720	530.305254362544	0.023284836345
4	392725	530.306094843855	0.000840481311
4	392734	530.307768576707	0.001673732852
4	392751	530.313337134167	0.00556855746
4	392780	530.411421563456	0.098084429289
4	392785	530.414573301663	0.003151738207
4	392804	530.4254242047	0.010850903037
4	392807	530.426177861637	0.000753656937
4	392814	530.427405517541	0.001227655904
4	392857	530.469209862342	0.041804344801
4	392860	530.470306016432	0.00109615409
4	392891	530.483916044561	0.013610028129
4	392914	530.498430963415	0.014514918854
4	392921	530.501110040313	0.002679076898
4	392924	530.501924696623	0.00081465631
4	392955	530.550306828633	0.04838213201
4	392978	530.601868162871	0.051561334238
4	392981	530.602127503859	0.000259340988
4	393048	530.650810434702	0.048682930843
4	393075	530.712833106995	0.062022672293
4	393118	530.8191893564	0.106356249405
4	393137	530.835389436391	0.016200079991
4	393176	530.897536803487	0.062147367096
4	393207	530.949569928293	0.052033124806
4	393222	530.959029475912	0.009459547619
4	393225	530.959268346352	0.00023887044
4	393228	530.959828272404	0.000559926052
4	393257	531.000890439487	0.041062167083
4	393312	531.062712494961	0.061822055474
4	393351	531.100088613883	0.037376118922
4	393406	531.171415475395	0.071326861512
4	393425	531.194271167549	0.022855692154
4	393428	531.194412566166	0.000141398617
4	393435	531.196560528681	0.002147962515
4	393474	531.224025223011	0.02746469433
4	393477	531.224164467134	0.000139244123
4	393540	531.311889740649	0.087725273515
4	393545	531.314729528075	0.002839787426
4	393566	531.321767330692	0.007037802617
4	393605	531.350771667148	0.029004336456
4	393612	531.352987617427	0.002215950279
4	393669	531.372141225914	0.019153608487
4	393694	531.386742852337	0.014601626423
4	393701	531.389249600816	0.002506748479
4	393736	531.432189905901	0.042940305085
4	393749	531.442223571328	0.010033665427
4	393758	531.491868510071	0.049644938743
4	393769	531.500546259715	0.008677749644
4	393832	531.575315274536	0.074769014821
4	393875	531.608052819403	0.032737544867
4	393888	531.624705272444	0.016652453041
4	393945	531.675746163394	0.05104089095
4	393976	531.707922541205	0.032176377811
4	394007	531.740220800832	0.032298259627
4	394042	531.803404907801	0.063184106969
4	394053	531.811778141014	0.008373233213
4	394060	531.813863031182	0.002084890168
4	394089	531.832604481806	0.018741450624
4	394094	531.834821275211	0.002216793405
4	394103	531.841112281232	0.006291006021
4	394156	531.959954918005	0.118842636773
4	394163	531.962609668337	0.002654750332
4	394205	532.003801849281	0.041192180944
4	394220	532.019532525927	0.015730676646
4	394235	532.027283369287	0.00775084336
4	394242	532.029898912108	0.002615542821
4	394277	532.049695077	0.019796164892
4	394316	532.119486725902	0.069791648902
4	394331	532.14428230725	0.024795581348
4	394342	532.204686853356	0.060404546106
4	394393	532.250855347798	0.046168494442
4	394402	532.25816588399	0.007310536192
4	394459	532.287160637301	0.028994753311
4	394466	532.290774756649	0.003614119348
4	394509	532.343077513241	0.052302756592
4	394512	532.344073768634	0.000996255393
4	394521	532.347761200006	0.003687431372
4	394530	532.349667631117	0.001906431111
4	394533	532.350147199529	0.000479568412
4	394552	532.363321386657	0.013174187128
4	394555	532.363606230069	0.000284843412
4	394558	532.365150553871	0.001544323802
4	394573	532.397524857222	0.032374303351
4	394592	532.440266984143	0.042742126921
4	394615	532.504102248681	0.063835264538
4	394654	532.55602774655	0.051925497869
4	394657	532.556773548068	0.000745801518
4	394664	532.573059009392	0.016285461324
4	394667	532.573100034103	4.1024711e-05
4	394678	532.580110738723	0.00701070462
4	394689	532.588972351938	0.008861613215
4	394708	532.598870477421	0.009898125483
4	394759	532.66386318667	0.064992709249
4	394766	532.665989633567	0.002126446897
4	394833	532.768439362752	0.102449729185
4	394836	532.769146170697	0.000706807945
4	394855	532.784216644528	0.015070473831
4	394858	532.784906384808	0.00068974028
4	394885	532.862585565276	0.077679180468
4	394900	532.915414961657	0.052829396381
4	394939	532.995756555006	0.080341593349
4	394953	533.004482908635	0.008726353629
4	394962	533.00859875418	0.004115845545
4	394991	533.031458125325	0.022859371145
4	395002	533.03552342784	0.004065302515
4	395013	533.048411738254	0.012888310414
4	395030	533.05786383044	0.009452092186
4	395039	533.065530852096	0.007667021656
4	395058	533.071900190466	0.00636933837
4	395065	533.075691034536	0.00379084407
4	395086	533.093864746781	0.018173712245
4	395147	533.128255457818	0.034390711037
4	395166	533.151705047594	0.023449589776
4	395193	533.195095164843	0.043390117249
4	395228	533.233666372045	0.038571207202
4	395263	533.279487316122	0.045820944077
4	395282	533.304509784541	0.025022468419
4	395297	533.313137225871	0.00862744133
4	395304	533.318032683056	0.004895457185
4	395311	533.320164360855	0.002131677799
4	395314	533.321665800438	0.001501439583
4	395319	533.322605630557	0.000939830119
4	395324	533.323651267644	0.001045637087
4	395335	533.338489260425	0.014837992781
4	395354	533.365091628136	0.026602367711
4	395361	533.36632090708	0.001229278944
4	395368	533.368264800527	0.001943893447
4	395407	533.414307097373	0.046042296846
4	395422	533.422640963391	0.008333866018
4	395437	533.447405288149	0.024764324758
4	395456	533.459088931044	0.011683642895
4	395459	533.459875271462	0.000786340418
4	395474	533.50521133276	0.045336061298
4	395493	533.558174338876	0.052963006116
4	395504	533.574774901328	0.016600562452
4	395535	533.615915714016	0.041140812688
4	395554	533.66763949871	0.051723784694
4	395557	533.668585842299	0.000946343589
4	395572	533.691696047576	0.023110205277
4	395579	533.693739210734	0.002043163158
4	395582	533.693998059401	0.000258848667
4	395649	533.776779943112	0.082781883711
4	395684	533.826631747553	0.049851804441
4	395691	533.827240194812	0.000608447259
4	395718	533.873232446233	0.045992251421
4	395725	533.927665942432	0.054433496199
4	395744	533.932608981027	0.004943038595
4	395781	533.962335568069	0.029726587042
4	395798	533.975196626805	0.012861058736
4	395819	533.982615704087	0.007419077282
4	395824	533.98415721698	0.001541512893
4	395833	533.987223995276	0.003066778296
4	395838	533.988619891108	0.001395895832
4	395908	534.130088531984	0.141468640876
4	395913	534.131259756103	0.001171224119
4	395922	534.139770166961	0.008510410858
4	395937	534.198325022239	0.058554855278
4	395952	534.222278393737	0.023953371498
4	395967	534.228052685556	0.005774291819
4	395978	534.243270642799	0.015217957243
4	396007	534.302262059497	0.058991416698
4	396010	534.303082007378	0.000819947881
4	396013	534.303114405422	3.2398044e-05
4	396062	534.374694909777	0.071580504355
4	396065	534.37554084681	0.000845937033
4	396068	534.376002368766	0.000461521956
4	396075	534.380444694947	0.004442326181
4	396082	534.405262360808	0.024817665861
4	396093	534.415603606547	0.010341245739
4	396104	534.419292874306	0.003689267759
4	396119	534.439235679325	0.019942805019
4	396130	534.440230510581	0.000994831256
4	396181	534.4879090163	0.047678505719
4	396184	534.488031737138	0.000122720838
4	396201	534.497007325545	0.008975588407
4	396208	534.499649029353	0.002641703808
4	396225	534.508706063893	0.00905703454
4	396272	534.530314810479	0.021608746586
4	396283	534.537567742651	0.007252932172
4	396286	534.538004147229	0.000436404578
4	396291	534.540648257699	0.00264411047
4	396324	534.565429713882	0.024781456183
4	396467	534.834207965685	0.268778251803
4	396498	534.855009574473	0.020801608788
4	396553	534.910384343093	0.05537476862
4	396556	534.912680069699	0.002295726606
4	396559	534.913039236733	0.000359167034
4	396570	534.927139738084	0.014100501351
4	396577	534.931726485783	0.004586747699
4	396580	534.93177643438	4.9948597e-05
4	396603	534.953619167289	0.021842732909
4	396636	534.985662545025	0.032043377736
4	396649	534.992027947943	0.006365402918
4	396654	534.993023722759	0.000995774816
4	396657	534.993562011079	0.00053828832
4	396670	534.999806418957	0.006244407878
4	396701	535.046954684608	0.047148265651
4	396736	535.177345610956	0.130390926348
4	396741	535.179315166641	0.001969555685
4	396744	535.179420158302	0.000104991661
4	396747	535.180785740418	0.001365582116
4	396756	535.184631003378	0.00384526296
4	396767	535.203840604594	0.019209601216
4	396852	535.351500370243	0.147659765649
4	396913	535.515304218399	0.163803848156
4	396916	535.516047530553	0.000743312154
4	396943	535.548913207388	0.032865676835
4	396962	535.576943234022	0.028030026634
4	396969	535.579458384012	0.00251514999
4	396976	535.582122712054	0.002664328042
4	397023	535.688617644168	0.106494932114
4	397030	535.690188785078	0.00157114091
4	397081	535.71768799354	0.027499208462
4	397108	535.764283418941	0.046595425401
4	397123	535.770077866093	0.005794447152
4	397136	535.774972984567	0.004895118474
4	397165	535.80921057728	0.034237592713
4	397172	535.813909454078	0.004698876798
4	397187	535.830365743096	0.016456289018
4	397250	535.887358385896	0.0569926428
4	397261	535.89653037242	0.009171986524
4	397272	535.901658229627	0.005127857207
4	397283	535.908365133119	0.006706903492
4	397298	535.917443657953	0.009078524834
4	397343	535.985967613704	0.068523955751
4	397350	535.987614153158	0.001646539454
4	397353	535.988209276798	0.00059512364
4	397366	535.99444462921	0.006235352412
4	397369	535.994994914375	0.000550285165
4	397380	535.997947953624	0.002953039249
4	397410	536.01120270993	0.013254756306
4	397413	536.011459758326	0.000257048396
4	397420	536.015920113669	0.004460355343
4	397423	536.018424771365	0.002504657696
4	397438	536.083302001573	0.064877230208
4	397481	536.148030205371	0.064728203798
4	397496	536.168182409697	0.020152204326
4	397503	536.171260564749	0.003078155052
4	397506	536.17148656257	0.000225997821
4	397545	536.267095873619	0.095609311049
4	397548	536.268091129597	0.000995255978
4	397575	536.338133329862	0.070042200265
4	397580	536.339098579377	0.000965249515
4	397583	536.339900808018	0.000802228641
4	397590	536.342229945733	0.002329137715
4	397593	536.342574668431	0.000344722698
4	397634	536.394266011656	0.051691343225
4	397645	536.401871546275	0.007605534619
4	397648	536.402440408971	0.000568862696
4	397703	536.538427458071	0.1359870491
4	397718	536.566354026494	0.027926568423
4	397747	536.65281016717	0.086456140676
4	397792	536.681593640193	0.028783473023
4	397819	536.720549417791	0.038955777598
4	397830	536.72753239085	0.006982973059
4	397837	536.751979258656	0.024446867806
4	397856	536.760818677247	0.008839418591
4	397859	536.761018167566	0.000199490319
4	397864	536.761478826333	0.000460658767
4	397881	536.771316521857	0.009837695524
4	397928	536.816473369083	0.045156847226
4	397931	536.816619796413	0.00014642733
4	397938	536.817267493381	0.000647696968
4	397953	536.840092106537	0.022824613156
4	397964	536.893451691965	0.053359585428
4	397975	536.907484632814	0.014032940849
4	398001	537.007129417899	0.099644785085
4	398012	537.018341728001	0.011212310102
4	398023	537.025093506417	0.006751778416
4	398054	537.073638203011	0.048544696594
4	398057	537.07414690343	0.000508700419
4	398090	537.10379967917	0.02965277574
4	398093	537.104851627045	0.001051947875
4	398138	537.226227561914	0.121375934869
4	398149	537.23818497076	0.011957408846
4	398160	537.244609247831	0.006424277071
4	398175	537.253773118338	0.009163870507
4	398180	537.255495907737	0.001722789399
4	398183	537.255857715998	0.000361808261
4	398218	537.278381791356	0.022524075358
4	398221	537.28009449027	0.001712698914
4	398246	537.285869413117	0.005774922847
4	398251	537.28622426657	0.000354853453
4	398256	537.287969808265	0.001745541695
4	398295	537.36117090599	0.073201097725
4	398310	537.384367516614	0.023196610624
4	398337	537.407954271591	0.023586754977
4	398342	537.410886795211	0.00293252362
4	398369	537.461565250046	0.050678454835
4	398386	537.471793175698	0.010227925652
4	398389	537.471880071951	8.6896253e-05
4	398436	537.597282030612	0.125401958661
4	398455	537.658303383092	0.06102135248
4	398458	537.658403890145	0.000100507053
4	398469	537.669120712341	0.010716822196
4	398476	537.673049190395	0.003928478054
4	398493	537.684367273622	0.011318083227
4	398524	537.720458291014	0.036091017392
4	398529	537.722355467051	0.001897176037
4	398540	537.725522926369	0.003167459318
4	398583	537.750242189008	0.024719262639
4	398586	537.752627060971	0.002384871963
4	398597	537.765520485296	0.012893424325
4	398604	537.766624972006	0.00110448671
4	398623	537.813873499035	0.047248527029
4	398638	537.838254760894	0.024381261859
4	398661	537.916434749037	0.078179988143
4	398684	537.939760565745	0.023325816708
4	398730	538.044262358166	0.104501792421
4	398761	538.054920932901	0.010658574735
4	398764	538.055432526615	0.000511593714
4	398787	538.075656340486	0.020223813871
4	398814	538.090365081262	0.014708740776
4	398825	538.096044383062	0.0056793018
4	398832	538.097830189558	0.001785806496
4	398839	538.102206780471	0.004376590913
4	398846	538.106078067695	0.003871287224
4	398881	538.143758853907	0.037680786212
4	398886	538.144990573512	0.001231719605
4	398889	538.145031416141	4.0842629e-05
4	398912	538.182112873671	0.03708145753
4	398941	538.254994654621	0.07288178095
4	398960	538.28945833808	0.034463683459
4	398963	538.289543757691	8.5419611e-05
4	398966	538.290541094896	0.000997337205
4	398977	538.312591757453	0.022050662557
4	399028	538.421985163223	0.10939340577
4	399033	538.42463759884	0.002652435617
4	399036	538.424934564626	0.000296965786
4	399109	538.475738806721	0.050804242095
4	399120	538.482669121424	0.006930314703
4	399147	538.507165676596	0.024496555172
4	399162	538.52664159306	0.019475916464
4	399167	538.528831083291	0.002189490231
4	399196	538.556347819508	0.027516736217
4	399199	538.557408152248	0.00106033274
4	399208	538.560430646536	0.003022494288
4	399237	538.647008089701	0.086577443165
4	399240	538.647036539547	2.8449846e-05
4	399247	538.653574746698	0.006538207151
4	399262	538.660492634848	0.00691788815
4	399325	538.733110089009	0.072617454161
4	399328	538.734189849789	0.00107976078
4	399343	538.745777515319	0.01158766553
4	399380	538.766312527983	0.020535012664
4	399401	538.773968154931	0.007655626948
4	399412	538.803389345152	0.029421190221
4	399423	538.835098555185	0.031709210033
4	399446	538.881262019751	0.046163464566
4	399475	538.930456417033	0.049194397282
4	399480	538.93262077554	0.002164358507
4	399483	538.933126009914	0.000505234374
4	399494	538.952867347742	0.019741337828
4	399503	538.971390496707	0.018523148965
4	399512	538.979689159043	0.008298662336
4	399546	539.027495151383	0.04780599234
4	399557	539.061348165167	0.033853013784
4	399570	539.065402918279	0.004054753112
4	399631	539.151991720974	0.086588802695
4	399642	539.184550147015	0.032558426041
4	399653	539.189148836566	0.004598689551
4	399660	539.207544551528	0.018395714962
4	399675	539.226637323324	0.019092771796
4	399710	539.263133266353	0.036495943029
4	399713	539.26415481989	0.001021553537
4	399716	539.264398203737	0.000243383847
4	399727	539.27316775176	0.008769548023
4	399738	539.28238673448	0.00921898272
4	399757	539.311700982972	0.029314248492
4	399762	539.314466085551	0.002765102579
4	399803	539.352271816062	0.037805730511
4	399830	539.43906003335	0.086788217288
4	399865	539.594496451355	0.155436418005
4	399880	539.611538048981	0.017041597626
4	399887	539.629530804045	0.017992755064
4	399910	539.679115796738	0.049584992693
4	399933	539.728718275096	0.049602478358
4	399960	539.789100538139	0.060382263043
4	399995	539.84713509784	0.058034559701
4	399998	539.847348990868	0.000213893028
4	400001	539.847360410971	1.1420103e-05
4	400028	539.884905871056	0.037545460085
4	400039	539.949159765531	0.064253894475
4	400046	539.951817188598	0.002657423067
4	400093	540.008092944268	0.05627575567
4	400104	540.011312838649	0.003219894381
4	400151	540.140123909298	0.128811070649
4	400170	540.185696512378	0.04557260308
4	400199	540.198826747466	0.013130235088
4	400206	540.200323168239	0.001496420773
4	400223	540.223057215958	0.022734047719
4	400242	540.25365032995	0.030593113992
4	400293	540.293312331647	0.039662001697
4	400312	540.302831990953	0.009519659306
4	400341	540.331254327815	0.028422336862
4	400358	540.342117801673	0.010863473858
4	400367	540.343724054447	0.001606252774
4	400398	540.365953263405	0.022229208958
4	400403	540.368974663372	0.003021399967
4	400450	540.43642816991	0.067453506538
4	400465	540.442241705881	0.005813535971
4	400476	540.458885100101	0.01664339422
4	400503	540.495961309775	0.037076209674
4	400520	540.523253570745	0.02729226097
4	400541	540.556072279887	0.032818709142
4	400568	540.575305060961	0.019232781074
4	400579	540.587675193699	0.012370132738
4	400582	540.588285292854	0.000610099155
4	400677	540.759687418483	0.171402125629
4	400688	540.783042384848	0.023354966365
4	400697	540.790774653079	0.007732268231
4	400702	540.793173925774	0.002399272695
4	400713	540.798443622028	0.005269696254
4	400748	540.908229444397	0.109785822369
4	400753	540.910949241105	0.002719796708
4	400788	540.921780938554	0.010831697449
4	400801	540.935855209324	0.01407427077
4	400808	540.938584628147	0.002729418823
4	400815	540.944226392488	0.005641764341
4	400830	540.957207606219	0.012981213731
4	400849	540.98524150216	0.028033895941
4	400852	540.987051345569	0.001809843409
4	400925	541.098207246213	0.111155900644
4	400990	541.178971630898	0.080764384685
4	401021	541.20513044619	0.026158815292
4	401032	541.251528609989	0.046398163799
4	401041	541.273447571732	0.021918961743
4	401048	541.279616122112	0.00616855038
4	401071	541.30434159663	0.024725474518
4	401098	541.354234846468	0.049893249838
4	401109	541.373566248256	0.019331401788
4	401116	541.374700543845	0.001134295589
4	401139	541.448385202973	0.073684659128
4	401186	541.491298084509	0.042912881536
4	401189	541.491364950495	6.6865986e-05
4	401192	541.4935209255	0.002155975005
4	401199	541.513872985041	0.020352059541
4	401206	541.518699075542	0.004826090501
4	401217	541.537841713027	0.019142637485
4	401248	541.587321574288	0.049479861261
4	401261	541.597291173223	0.009969598935
4	401276	541.601120764689	0.003829591466
4	401333	541.691972966161	0.090852201472
4	401336	541.692744619726	0.000771653565
4	401351	541.74634397772	0.053599357994
4	401376	541.829052846645	0.082708868925
4	401383	541.830567778516	0.001514931871
4	401396	541.861793777157	0.031225998641
4	401405	541.875552270805	0.013758493648
4	401414	541.877428909673	0.001876638868
4	401421	541.904812469442	0.027383559769
4	401440	541.928136724283	0.023324254841
4	401459	541.956455895322	0.028319171039
4	401474	541.977376726694	0.020920831372
4	401504	542.003485509963	0.026108783269
4	401511	542.006298293956	0.002812783993
4	401550	542.06228549561	0.055987201654
4	401593	542.100810344215	0.038524848605
4	401612	542.12438246866	0.023572124445
4	401639	542.189610450986	0.065227982326
4	401666	542.204414644281	0.014804193295
4	401677	542.211412581161	0.00699793688
4	401680	542.215278233645	0.003865652484
4	401683	542.216881453439	0.001603219794
4	401698	542.264305686612	0.047424233173
4	401707	542.272030777161	0.007725090549
4	401710	542.274597711621	0.00256693446
4	401715	542.277018443358	0.002420731737
4	401718	542.27738133891	0.000362895552
4	401789	542.34488564231	0.0675043034
4	401844	542.414540462691	0.069654820381
4	401857	542.420449176278	0.005908713587
4	401868	542.426814423441	0.006365247163
4	401871	542.427238979764	0.000424556323
4	401880	542.448842556648	0.021603576884
4	401895	542.463324829853	0.014482273205
4	401902	542.469788209451	0.006463379598
4	401957	542.574802760887	0.105014551436
4	401970	542.582960097076	0.008157336189
4	401981	542.587113618212	0.004153521136
4	402030	542.627840968599	0.040727350387
4	402069	542.701822791427	0.073981822828
4	402076	542.709513383682	0.007690592255
4	402127	542.869440637952	0.15992725427
4	402144	542.876790904362	0.00735026641
4	402151	542.878255416099	0.001464511737
4	402180	542.91269921662	0.034443800521
4	402183	542.913438011885	0.000738795265
4	402194	542.918083280137	0.004645268252
4	402213	542.942817668814	0.024734388677
4	402243	543.020121913522	0.077304244708
4	402250	543.02953584989	0.009413936368
4	402381	543.141827953719	0.112292103829
4	402402	543.151279487402	0.009451533683
4	402455	543.239788294113	0.088508806711
4	402458	543.240478767785	0.000690473672
4	402481	543.282522167291	0.042043399506
4	402544	543.390580632608	0.108058465317
4	402559	543.401818044504	0.011237411896
4	402586	543.46624125778	0.064423213276
4	402667	543.516444998984	0.050203741204
4	402692	543.524663822029	0.008218823045
4	402719	543.595024260642	0.070360438613
4	402782	543.698592113143	0.103567852501
4	402793	543.724616637254	0.026024524111
4	402820	543.768171073431	0.043554436177
4	402823	543.769081292277	0.000910218846
4	402846	543.787729823076	0.018648530799
4	402857	543.79235482691	0.004625003834
4	402862	543.795251509813	0.002896682903
4	402869	543.796330003964	0.001078494151
4	402882	543.803796157048	0.007466153084
4	402907	543.856825015323	0.053028858275
4	402932	543.878344021486	0.021519006163
4	402943	543.905672800216	0.02732877873
4	402962	543.955234262708	0.049561462492
4	402972	544.010900598414	0.055666335706
4	402975	544.013908977302	0.003008378888
4	402982	544.0165180222	0.002609044898
4	403001	544.042579994076	0.026061971876
4	403008	544.056464248291	0.013884254215
4	403039	544.090484566999	0.034020318708
4	403054	544.106451712158	0.015967145159
4	403119	544.238931196423	0.132479484265
4	403122	544.239349358394	0.000418161971
4	403135	544.242517738275	0.003168379881
4	403138	544.242552446117	3.4707842e-05
4	403157	544.270661222557	0.02810877644
4	403172	544.283001141888	0.012339919331
4	403179	544.29229005622	0.009288914332
4	403194	544.303859685337	0.011569629117
4	403209	544.332247918299	0.028388232962
4	403238	544.379786862623	0.047538944324
4	403243	544.380725982602	0.000939119979
4	403250	544.386489691892	0.00576370929
4	403257	544.38757899857	0.001089306678
4	403268	544.399005656669	0.011426658099
4	403295	544.409390663812	0.010385007143
4	403298	544.411322428762	0.00193176495
4	403305	544.418617100532	0.00729467177
4	403340	544.4586196246	0.040002524068
4	403343	544.458849125014	0.000229500414
4	403346	544.460168477365	0.001319352351
4	403349	544.460258446405	8.996904e-05
4	403356	544.475902942153	0.015644495748
4	403367	544.481455157971	0.005552215818
4	403390	544.533064829413	0.051609671442
4	403421	544.598881955475	0.065817126062
4	403430	544.599918263378	0.001036307903
4	403435	544.601781234768	0.00186297139
4	403466	544.629466413268	0.0276851785
4	403481	544.64965658207	0.020190168802
4	403488	544.651777419249	0.002120837179
4	403495	544.657037589376	0.005260170127
4	403502	544.66092818571	0.003890596334
4	403513	544.682148839331	0.021220653621
4	403528	544.694092670379	0.011943831048
4	403547	544.731886451935	0.037793781556
4	403558	544.778999242261	0.047112790326
4	403627	544.84529225964	0.066293017379
4	403644	544.856889151719	0.011596892079
4	403667	544.889352935383	0.032463783664
4	403684	544.897201482096	0.007848546713
4	403697	544.900873615645	0.003672133549
4	403736	544.966577072322	0.065703456677
4	403741	544.966757374041	0.000180301719
4	403750	544.972795402749	0.006038028708
4	403753	544.973675982407	0.000880579658
4	403756	544.974124232805	0.000448250398
4	403791	545.039728882498	0.065604649693
4	403826	545.121320433737	0.081591551239
4	403857	545.151234589754	0.029914156017
4	403868	545.167180694671	0.015946104917
4	403887	545.204744414894	0.037563720223
4	403904	545.215617598306	0.010873183412
4	403917	545.220003835209	0.004386236903
4	403924	545.225243132236	0.005239297027
4	403929	545.225779668246	0.00053653601
4	403940	545.230012677909	0.004233009663
4	403957	545.237575237907	0.007562559998
4	403972	545.24773190294	0.010156665033
4	403979	545.267129606345	0.019397703405
4	403994	545.299758445687	0.032628839342
4	403997	545.301297662338	0.001539216651
4	404008	545.305232548455	0.003934886117
4	404011	545.306589569332	0.001357020877
4	404018	545.358297639715	0.051708070383
4	404021	545.359042267309	0.000744627594
4	404038	545.371689646816	0.012647379507
4	404043	545.372342743862	0.000653097046
4	404062	545.379449232561	0.007106488699
4	404069	545.388865764769	0.009416532208
4	404160	545.59013810404	0.201272339271
4	404171	545.595089682615	0.004951578575
4	404178	545.601002124662	0.005912442047
4	404193	545.613517460445	0.012515335783
4	404228	545.666365785937	0.052848325492
4	404247	545.67765802343	0.011292237493
4	404290	545.737520309823	0.059862286393
4	404309	545.767675595669	0.030155285846
4	404320	545.774543236207	0.006867640538
4	404323	545.774593595099	5.0358892e-05
4	404350	545.819810595847	0.045217000748
4	404365	545.836598732993	0.016788137146
4	404372	545.862262442499	0.025663709506
4	404379	545.870394582357	0.008132139858
4	404382	545.870419425344	2.4842987e-05
4	404389	545.874237326274	0.00381790093
4	404404	545.915052960421	0.040815634147
4	404433	545.969807501693	0.054754541272
4	404461	546.019812891544	0.050005389851
4	404464	546.021519384394	0.00170649285
4	404471	546.023967601075	0.002448216681
4	404486	546.038879098596	0.014911497521
4	404545	546.141461078174	0.102581979578
4	404580	546.207005093968	0.065544015794
4	404583	546.207485932232	0.000480838264
4	404590	546.226156480306	0.018670548074
4	404621	546.28873033528	0.062573854974
4	404646	546.299815450499	0.011085115219
4	404659	546.329416026986	0.029600576487
4	404662	546.329697720575	0.000281693589
4	404717	546.445442714238	0.115744993663
4	404746	546.478007205161	0.032564490923
4	404767	546.491676406059	0.013669200898
4	404798	546.555192508374	0.063516102315
4	404825	546.578922513483	0.023730005109
4	404840	546.58836755812	0.009445044637
4	404859	546.604915632761	0.016548074641
4	404874	546.617166250761	0.012250618
4	404881	546.618886492711	0.00172024195
4	404892	546.62334578996	0.004459297249
4	404911	546.657683079278	0.034337289318
4	404954	546.750695167252	0.093012087974
4	404957	546.750991685482	0.00029651823
4	405004	546.859711186215	0.108719500733
4	405023	546.922851888342	0.063140702127
4	405089	547.080226820318	0.157374931976
4	405096	547.085024769105	0.004797948787
4	405127	547.245966142561	0.160941373456
4	405150	547.287854171938	0.041888029377
4	405171	547.294849967641	0.006995795703
4	405216	547.365848703765	0.070998736124
4	405219	547.366641971802	0.000793268037
4	405294	547.534042407461	0.167400435659
4	405329	547.554824446149	0.020782038688
4	405356	547.573275301521	0.018450855372
4	405395	547.600598223771	0.02732292225
4	405402	547.604358860939	0.003760637168
4	405425	547.620162271359	0.01580341042
4	405448	547.639574496644	0.019412225285
4	405471	547.654504964828	0.014930468184
4	405506	547.676013711369	0.021508746541
4	405523	547.69046444688	0.014450735511
4	405538	547.693675692158	0.003211245278
4	405543	547.694715851953	0.001040159795
4	405554	547.697054563007	0.002338711054
4	405581	547.70493129011	0.007876727103
4	405588	547.707155418112	0.002224128002
4	405627	547.773622938203	0.066467520091
4	405638	547.777569840845	0.003946902642
4	405641	547.778116653922	0.000546813077
4	405660	547.791042255998	0.012925602076
4	405669	547.793568336908	0.00252608091
4	405678	547.796356202101	0.002787865193
4	405681	547.79904249604	0.002686293939
4	405692	547.808887392855	0.009844896815
4	405705	547.823845488692	0.014958095837
4	405742	547.848546290683	0.024700801991
4	405745	547.848616301397	7.0010714e-05
4	405768	547.868891959207	0.02027565781
4	405785	547.879217363863	0.010325404656
4	405790	547.880178333351	0.000960969488
4	405795	547.881111960552	0.000933627201
4	405804	547.885065078159	0.003953117607
4	405815	547.890153202574	0.005088124415
4	405846	547.950366074904	0.06021287233
4	405861	547.964355322524	0.01398924762
4	405864	547.966254820964	0.00189949844
4	405922	548.078183760961	0.111928939997
4	405933	548.100314531753	0.022130770792
4	405988	548.202258071441	0.101943539688
4	405999	548.20413054186	0.001872470419
4	406014	548.210347357387	0.006216815527
4	406025	548.213682272647	0.00333491526
4	406066	548.267666361335	0.053984088688
4	406075	548.270177712824	0.002511351489
4	406082	548.272925353989	0.002747641165
4	406095	548.276555621858	0.003630267869
4	406100	548.27983040226	0.003274780402
4	406135	548.32147834627	0.04164794401
4	406138	548.322981117633	0.001502771363
4	406145	548.346761419038	0.023780301405
4	406148	548.347495634891	0.000734215853
4	406167	548.373780137293	0.026284502402
4	406170	548.375038739631	0.001258602338
4	406233	548.456350459203	0.081311719572
4	406236	548.457113183392	0.000762724189
4	406263	548.518166645161	0.061053461769
[...]
5	1096585	1486.537807673381	1.553475115555
5	1096594	1486.570274694236	0.754875819503
5	1096597	1486.570709597735	0.000434903499
5	1096612	1486.579466591019	0.008756993284
5	1096631	1486.591538272808	2.196902665644
5	1096634	1486.592733615576	0.001195342768
5	1096657	1486.631818926314	1.509530711031
5	1096664	1486.640190544207	0.008371617893
5	1096683	1486.677214189931	3.660342290238
5	1096726	1486.755324023226	4.260479268046
5	1096729	1486.756410032379	0.001086009153
5	1096734	1486.757323218642	0.000913186263
5	1096755	1486.764027059606	3.66855686633
5	1096778	1486.773316568308	0.784075986489
5	1096799	1486.782628713574	3.610738706972
5	1096802	1486.783711361915	1.394633480661
5	1096805	1486.784443337949	0.001814624375
5	1096838	1486.872306668761	2.208994868023
5	1096849	1486.880308504261	0.86085477764
5	1096860	1486.883443197145	0.011136528384
5	1096891	1486.931197603422	2.251446024206
5	1096894	1486.932305442112	0.00110783869
5	1096921	1486.976439296362	5.11080358002
5	1096934	1486.980286282799	2.242580082841
5	1096947	1486.989372807536	0.782686241611
5	1096957	1487.004162976706	0.01479016917
5	1096972	1487.024816635975	3.73976446427
5	1097011	1487.070529577472	0.753693058061
5	1097066	1487.157973007527	0.820255948785
5	1097141	1487.309720289939	1.484229199253
5	1097164	1487.325525766725	2.241593253343
5	1097231	1487.445190283609	0.687867064967
5	1097234	1487.44555176287	0.000361479261
5	1097241	1487.476293688069	1.519547563475
5	1097248	1487.483131072511	0.006837384442
5	1097259	1487.496060262278	4.952575106653
5	1097306	1487.602545343028	1.536784745362
5	1097317	1487.606194515618	0.00364917259
5	1097324	1487.619767108295	1.565726697013
5	1097331	1487.621410095317	0.741101591056
5	1097338	1487.625218414357	0.005451306062
5	1097361	1487.658346500616	0.774903303471
5	1097366	1487.660137326774	1.576948531073
5	1097395	1487.686453014912	0.028106514296
5	1097430	1487.813242840035	0.809079863329
5	1097433	1487.813538351059	0.000295511024
5	1097442	1487.838173067147	3.13892460344
5	1097570	1488.048595609078	1.653607900043
5	1097617	1488.086768412237	3.827506865546
5	1097628	1488.090813252537	1.553005579156
5	1097639	1488.093560052039	0.002746799502
5	1097672	1488.109461766867	1.529995175848
5	1097677	1488.110450956483	1.517717340907
5	1097686	1488.112818095272	0.003356328405
5	1097727	1488.134313387739	2.226565529549
5	1097736	1488.136594187225	0.002280799486
5	1097761	1488.162117281069	1.484903091138
5	1097798	1488.187960816825	0.704829744314
5	1097827	1488.23202041233	1.467993352724
5	1097854	1488.328783242043	1.544339904094
5	1097899	1488.413646988551	0.792236893234
5	1097902	1488.414413116565	0.789194702208
5	1097967	1488.470005727206	4.457883430013
5	1097974	1488.475326944924	0.005321217718
5	1098017	1488.58529620093	2.35795273434
5	1098048	1488.603978047399	0.79043969634
5	1098071	1488.641059545892	5.867692455106
5	1098138	1488.723389646794	2.274583740547
5	1098141	1488.723473586258	8.3939464e-05
5	1098188	1488.795451965345	4.569811274338
5	1098231	1488.842154634875	0.729336539603
5	1098242	1488.850226504068	0.008071869193
5	1098245	1488.851598296838	0.00137179277
5	1098272	1488.895517991382	5.160445739035
5	1098285	1488.901649910511	2.261459366304
5	1098288	1488.901775645204	0.006257653822
5	1098291	1488.901881367851	0.00023145734
5	1098296	1488.902306658943	0.000425291092
5	1098299	1488.902580144559	0.000273485616
5	1098330	1488.923958622988	3.025820080484
5	1098337	1488.964517214431	3.069612149449
5	1098344	1488.978204313131	0.790243496306
5	1098347	1488.978711991514	0.000507678383
5	1098354	1488.984968378507	0.006256386993
5	1098372	1489.035460597258	1.589908834388
5	1098395	1489.070252868227	2.296936299919
5	1098402	1489.148870899785	3.152692182483
5	1098405	1489.151006691242	0.002135791457
5	1098428	1489.17333239877	2.389621036855
5	1098443	1489.184128580441	0.77048159189
5	1098458	1489.197353832209	7.43431764789
5	1098461	1489.197461139588	0.000107307379
5	1098464	1489.198384250181	0.000923110593
5	1098487	1489.246638910595	2.314333468483
5	1098498	1489.277381617557	0.802054672633
5	1098553	1489.381186421432	0.777208374033
5	1098588	1489.522521706831	3.196715339302
5	1098599	1489.525385768398	0.002864061567
5	1098634	1489.548225741837	3.83488828159
5	1098685	1489.713975269355	0.990501683097
5	1098716	1489.729013173549	5.394049652979
5	1098749	1489.840731567342	1.747171515303
5	1098760	1489.845788877627	2.520263110902
5	1098771	1489.851477186485	6.874361322632
5	1098774	1489.852106006109	0.011374438767
5	1098779	1489.855994548463	0.003888542354
5	1098786	1489.85702170726	0.001027158797
5	1098841	1489.973615983525	1.071035838966
5	1098860	1489.994277690243	4.772496637204
5	1098875	1490.002282840512	1.865688653287
5	1098902	1490.092210484454	1.107242105947
5	1098937	1490.134422185552	2.638361923274
5	1098948	1490.142555230197	1.910534817867
5	1098955	1490.157097369083	1.086844500856
5	1098962	1490.166657442633	0.00956007355
5	1098969	1490.169563335084	1.018556643842
5	1098976	1490.175971099469	1.847187857426
5	1098979	1490.176121298411	0.000150198942
5	1099010	1490.230096370548	1.045967790107
5	1099027	1490.236395104011	1.821981987446
5	1099030	1490.237663445509	0.007567074961
5	1099051	1490.248482155238	1.050097905057
5	1099082	1490.271591652502	2.611454325728
5	1099089	1490.274156621808	1.027517711213
5	1099092	1490.274289177963	0.000132556155
5	1099111	1490.284149559476	0.012557906974
5	1099166	1490.343340903932	2.505167836785
5	1099179	1490.353014583972	9.908002231077
5	1099182	1490.353778523289	0.972592101857
5	1099235	1490.482475327795	4.142090564459
5	1099254	1490.496885673858	4.828193303092
5	1099273	1490.545396132275	4.804536810845
5	1099276	1490.545791249649	0.000395117374
5	1099311	1490.56248233947	2.513886730392
5	1099314	1490.562733008204	0.000250668734
5	1099335	1490.569583422402	0.855608153047
5	1099340	1490.570404885048	0.000821462646
5	1099363	1490.593328847899	4.784614387837
5	1099442	1490.682200241014	0.708584257489
5	1099457	1490.687130611879	0.692852921636
5	1099468	1490.696522618995	0.009392007116
5	1099483	1490.719627118338	1.755109903907
5	1099518	1490.806927837114	0.672505651562
5	1099537	1490.812106892362	0.642543557278
5	1099602	1490.985949941543	0.749554837532
5	1099637	1491.115107732552	0.830958173076
5	1099640	1491.11665631397	0.001548581418
5	1099645	1491.11882294338	0.00216662941
5	1099662	1491.134871444179	4.158432147817
5	1099677	1491.145313079697	4.165026796898
5	1099708	1491.182821161024	2.597524960094
5	1099759	1491.300729637063	0.818254309268
5	1099798	1491.379681267609	0.816948259405
5	1099801	1491.379855170378	0.000173902769
5	1099848	1491.52628461413	1.680495736503
5	1099857	1491.528906916919	3.418455960436
5	1099888	1491.578460280845	4.268739990906
5	1099919	1491.622595149568	2.720819504364
5	1099952	1491.674712503591	0.955085385253
5	1099967	1491.692622643595	1.600412159141
5	1100012	1491.833291769735	1.657170471324
5	1100029	1491.888593840483	2.715261441713
5	1100060	1491.953546266576	1.705064111338
5	1100081	1491.974846255358	1.700557077395
5	1100104	1491.991315242934	5.865450549068
5	1100109	1491.992791227546	4.306338212634
5	1100135	1492.026888369328	0.034097141782
5	1100158	1492.041058679383	0.014170310055
5	1100165	1492.042451519072	0.051136276138
5	1100202	1492.063285630292	1.709507107003
5	1100235	1492.081198875348	0.038747356276
5	1100274	1492.125990390736	2.600604622338
5	1100279	1492.126796708901	7.989207083146
5	1100282	1492.126861827686	0.00087143695
5	1100285	1492.128791129941	0.00199442104
5	1100298	1492.142345220192	2.594119478355
5	1100301	1492.142507190813	0.000161970621
5	1100304	1492.14348568139	0.000978490577
5	1100319	1492.159838201607	1.662952527749
5	1100344	1492.170091505043	1.624300255394
5	1100349	1492.171332285686	0.001240780643
5	1100452	1492.313120768686	0.734660487841
5	1100459	1492.321404878073	0.008284109387
5	1100462	1492.321479814089	7.4936016e-05
5	1100489	1492.41487200315	1.718349384155
5	1100536	1492.458633481679	0.766010838084
5	1100559	1492.504733722601	3.469273125343
5	1100578	1492.556425903868	0.723134134133
5	1100605	1492.595457772489	0.706863932006
5	1100612	1492.60043751435	8.632093496263
5	1100627	1492.60893928052	0.00850176617
5	1100634	1492.612423969993	2.374760524484
5	1100637	1492.614789854197	0.002365884204
5	1100644	1492.651647469047	6.595917379045
5	1100649	1492.65196370757	0.000316238523
5	1100652	1492.652281161047	0.698734894471
5	1100655	1492.654102949093	0.002139241523
5	1100684	1492.676735693003	1.531422613306
5	1100711	1492.75229090995	1.569469748926
5	1100732	1492.809618632855	5.78480199688
5	1100741	1492.817918552789	2.474577648857
5	1100748	1492.820555839309	0.739356963961
5	1100753	1492.820780289671	0.000224450362
5	1100794	1492.841802888955	0.778517258663
5	1100819	1492.859219692589	8.083822911267
5	1100822	1492.859331721007	4.218272175115
5	1100831	1492.864264247793	0.004932526786
5	1100836	1492.867343727847	0.003079480054
5	1100841	1492.869458401062	0.002114673215
5	1100888	1492.940147652291	6.567309370441
5	1100891	1492.941467015508	0.001319363217
5	1100900	1492.950593083033	0.009126067525
5	1100917	1492.967415224728	7.212957738583
5	1100943	1493.008250889793	4.212798924448
5	1100958	1493.049443458835	4.962675046598
5	1100965	1493.055988548499	1.676133378121
5	1101004	1493.093020910709	1.566736296579
5	1101015	1493.122962270815	1.594055353896
5	1101022	1493.126092958466	0.003130687651
5	1101049	1493.158494136406	1.535898986838
5	1101060	1493.168998785415	4.317400488577
5	1101135	1493.287131155791	0.78239743319
5	1101170	1493.302130328642	3.135472886009
5	1101181	1493.307225591921	0.005095263279
5	1101192	1493.311888472299	2.325938530756
5	1101213	1493.322441350601	0.010552878302
5	1101236	1493.351152350795	1.376306095437
5	1101247	1493.355300315256	0.701197366163
5	1101260	1493.361133290871	4.083751673314
5	1101271	1493.376514872754	1.335456193371
5	1101290	1493.387550004863	0.71081431186
5	1101295	1493.388872400065	0.001322395202
5	1101300	1493.391213259794	0.002340859729
5	1101315	1493.425480840256	6.354951262784
5	1101326	1493.432147032509	0.679856122559
5	1101333	1493.435060917283	0.009580077027
5	1101348	1493.447582039158	0.629663486369
5	1101363	1493.456546219295	0.008964180137
5	1101370	1493.481560644759	3.128546060787
5	1101385	1493.489543279425	0.007982634666
5	1101440	1493.570932383445	1.399600097759
5	1101473	1493.585673708219	0.618258483491
5	1101522	1493.609243521577	6.45127051405
5	1101525	1493.611903296291	0.002659774714
5	1101532	1493.62407000753	0.615819117737
5	1101539	1493.628487433315	0.004417425785
5	1101554	1493.636148599197	0.586705140362
5	1101561	1493.640764374116	0.584775825617
5	1101576	1493.647367116663	0.011218517466
5	1101591	1493.654196264804	0.042292968513
5	1101610	1493.679447280114	0.553354321648
5	1101629	1493.710721360202	0.552227223796
5	1101632	1493.711985108943	0.001263748741
5	1101671	1493.748105459314	3.0659052183
5	1101678	1493.750038897581	0.001933438267
5	1101685	1493.752126689695	3.749843849183
5	1101702	1493.758781837414	4.834823214426
5	1101707	1493.760105881647	1.301472399968
5	1101738	1493.779556611514	3.637001381317
5	1101777	1493.852299762733	0.545074170812
5	1101788	1493.869927400747	0.547486050146
5	1101867	1493.990125831914	0.557978799405
5	1101893	1494.006552567318	0.550006348023
5	1101904	1494.024788633294	1.165568940705
5	1101945	1494.082311724136	1.922473522529
5	1101962	1494.092995320076	0.01068359594
5	1102073	1494.288863122865	4.431841415605
5	1102076	1494.289085283464	0.000222160599
5	1102099	1494.350750203343	0.598623513648
5	1102114	1494.372762605927	2.698050102336
5	1102157	1494.50820892425	1.221077768459
5	1102176	1494.516010797483	0.66371103475
5	1102197	1494.52191769074	6.915723175122
5	1102238	1494.602426758306	3.467555314127
5	1102263	1494.653712182494	1.844093549639
5	1102268	1494.655043152226	0.001330969732
5	1102277	1494.686001035237	1.865220745566
5	1102290	1494.72756178834	1.885758899385
5	1102297	1494.731700676111	0.004138887771
5	1102324	1494.773738566636	1.284195287211
5	1102351	1494.794297756149	0.020559189513
5	1102382	1494.824251166921	8.506538588405
5	1102385	1494.824361846746	0.000110679825
5	1102396	1494.837438646661	3.536709009598
5	1102411	1494.857890546159	0.764895226083
5	1102446	1494.918181302854	5.189168129305
5	1102469	1494.93640685154	4.343078003641
5	1102482	1494.947420405177	0.029239102323
5	1102489	1494.950671837688	0.003251432511
5	1102510	1494.961045095274	1.868024184565
5	1102519	1494.964034823395	1.323270449279
5	1102536	1494.983272319961	4.412867434913
5	1102555	1495.005685424166	1.358318307503
5	1102558	1495.005715928861	3.0504695e-05
5	1102561	1495.006287089981	0.00057116112
5	1102576	1495.021578178162	1.342130898048
5	1102587	1495.025771819152	0.00419364099
5	1102590	1495.027864497383	0.002092678231
5	1102605	1495.087621206976	2.766141392887
5	1102650	1495.153874335546	0.781111729619
5	1102709	1495.184053828102	2.627627924234
5	1102746	1495.226143361355	0.710132563872
5	1102755	1495.228113908483	1.358186507736
5	1102774	1495.237761470883	4.425654578521
5	1102819	1495.30723430032	1.956081949525
5	1102862	1495.333659876843	1.942446617049
5	1102877	1495.344700588505	1.968185715751
5	1102896	1495.378554647909	0.723511495683
5	1102919	1495.390889399835	0.704888364598
5	1102926	1495.417137151508	1.41058458419
5	1102929	1495.417615338923	0.000478187415
5	1102932	1495.418185684553	0.00057034563
5	1102935	1495.418721119086	0.000535434533
5	1102954	1495.443067511725	0.711366835614
5	1102957	1495.443107958985	4.044726e-05
5	1102970	1495.455242109632	1.430453476338
5	1102975	1495.455835556795	3.328973729109
5	1102978	1495.456300842834	0.001058733202
5	1102983	1495.458382055416	0.002546498621
5	1103080	1495.601059365035	0.664652513495
5	1103129	1495.64881669424	0.642529604259
5	1103146	1495.675411568209	0.587790361233
5	1103149	1495.675591117143	0.000179548934
5	1103152	1495.67609018909	0.000499071947
5	1103231	1495.75848177871	9.694592161416
5	1103242	1495.768221346949	0.009739568239
5	1103257	1495.80243266096	0.618378832858
5	1103272	1495.820697029648	0.018264368688
5	1103295	1495.860191200823	0.63207729234
5	1103310	1495.873226547437	0.647083186082
5	1103313	1495.874845430118	0.001618882681
5	1103320	1495.880674965433	0.005829535315
5	1103327	1495.884266971139	3.28880919865
5	1103342	1495.901628495048	3.292689214528
5	1103361	1495.91947254898	0.681711078097
5	1103364	1495.919855537102	0.000382988122
5	1103375	1495.925339895707	3.31055004151
5	1103398	1495.957920788859	0.032580893152
5	1103428	1496.041368924875	1.438942166569
5	1103451	1496.081646676428	2.091520844514
5	1103476	1496.101199764382	0.756499175877
5	1103479	1496.102550873793	2.66748995651
5	1103500	1496.11803056073	0.699309441644
5	1103527	1496.134836124854	0.691728165869
5	1103566	1496.183049130855	1.325158584696
5	1103579	1496.200969919239	11.212886930368
5	1103624	1496.33723396503	1.373199141635
5	1103631	1496.384231595968	2.730035331164
5	1103644	1496.391187125564	0.742370431324
5	1103647	1496.391711414311	6.540234227826
5	1103688	1496.468011861164	2.717972963583
5	1103703	1496.520717289511	2.760611407864
5	1103710	1496.523951143243	0.003233853732
5	1103727	1496.538170512847	1.384296177301
5	1103732	1496.539371846068	0.001201333221
5	1103735	1496.5397836463	0.000411800232
5	1103756	1496.583594479779	2.824812642365
5	1103785	1496.601921632365	5.794993795251
5	1103796	1496.610099554482	0.008177922117
5	1103799	1496.614828991863	0.004729437381
5	1103826	1496.673860160454	0.789593189315
5	1103841	1496.714568522676	0.812940027628
5	1103844	1496.71522092109	0.000652398414
5	1103901	1496.782836753	0.824915964141
5	1103922	1496.793569107129	0.752200182254
5	1103929	1496.794180319801	0.000611212672
5	1103932	1496.79537572288	5.6765527795
5	1103963	1496.808356560934	0.025519807934
5	1103976	1496.811464572344	1.477804695501
5	1104021	1496.901971457612	1.443589402196
5	1104024	1496.903974519803	0.002003062191
5	1104031	1496.909649825161	0.005675305358
5	1104034	1496.911177148844	0.001527323683
5	1104089	1496.986729400914	2.192431644765
5	1104100	1496.993462983627	0.006733582713
5	1104107	1496.998086902519	0.004623918892
5	1104117	1497.001579557553	0.003492655034
5	1104120	1497.001788028978	0.000208471425
5	1104127	1497.005520869686	0.003732840708
5	1104174	1497.085533492192	3.499859783973
5	1104189	1497.092137369797	2.141465532109
5	1104192	1497.092957552696	0.000820182899
5	1104195	1497.093349432045	0.000391879349
5	1104198	1497.093476993915	0.00012756187
5	1104213	1497.104487084211	3.475999650896
5	1104240	1497.134198561816	2.150926241855
5	1104251	1497.140222101561	0.755990505593
5	1104274	1497.162099566948	0.824865601918
5	1104305	1497.273114753659	0.881927628095
5	1104316	1497.286202959425	3.574217850482
5	1104339	1497.471682940965	3.120932737622
5	1104342	1497.472244636609	0.000561695644
5	1104365	1497.546769487805	3.767212876291
5	1104404	1497.635614482135	3.127405557885
5	1104413	1497.637033650272	1.022204658409
5	1104446	1497.646479260045	0.009445609773
5	1104453	1497.648354294725	1.788163093902
5	1104456	1497.648450162196	9.5867471e-05
5	1104533	1497.693888516242	4.338588200986
5	1104546	1497.706333816273	0.012445300031
5	1104577	1497.766303061303	1.684656384875
5	1104620	1497.857314839326	2.466425439491
5	1104647	1497.944587565874	1.80975144102
5	1104658	1497.960734002215	5.831942872274
5	1104692	1498.019780364246	5.876294682856
5	1104703	1498.06172697672	1.878677845865
5	1104710	1498.062938042367	4.492005658922
5	1104765	1498.15032441169	1.016125849874
5	1104772	1498.151842780541	0.001518368851
5	1104783	1498.155501128368	0.99340156142
5	1104802	1498.173636249403	1.781924835092
5	1104845	1498.255965035005	5.841093031855
5	1104852	1498.260586884024	1.79257502286
5	1104863	1498.26224610356	0.001659219536
5	1104906	1498.310812986784	2.542591639835
5	1104909	1498.311168839039	0.000355852255
5	1104916	1498.318805659296	0.772036171491
5	1104945	1498.329668477956	10.167551196887
5	1104958	1498.335758344855	0.70014386272
5	1104973	1498.386112481638	0.737662319442
5	1104984	1498.399449070798	0.01333658916
5	1105019	1498.422814343389	3.900896652649
5	1105106	1498.661415341664	2.543384780934
5	1105109	1498.66201468238	0.000599340716
5	1105112	1498.662686683636	0.000672001256
5	1105119	1498.665704376309	0.003017692673
5	1105174	1498.737274518257	0.717494154011
5	1105193	1498.751345835003	0.689618858283
5	1105232	1498.805856691813	2.604886772574
5	1105239	1498.811551340041	1.70706425583
5	1105254	1498.838759105073	0.027207765032
5	1105257	1498.839579020641	0.000819915568
5	1105379	1499.027259947018	1.741056987593
5	1105394	1499.039047960799	2.515096817556
5	1105397	1499.039903886601	0.000855925802
5	1105444	1499.100589509859	3.279892480211
5	1105455	1499.104047452914	2.520452973135
5	1105470	1499.110560542762	0.780892064806
5	1105477	1499.112651355274	0.776893010419
5	1105528	1499.283799634869	1.577465818596
5	1105547	1499.30388382946	2.509703509659
5	1105550	1499.305380810687	0.001496981227
5	1105561	1499.310637319732	0.005256509045
5	1105580	1499.327167649803	1.5608645885
5	1105595	1499.35274499556	3.974190347651
5	1105638	1499.422789917052	2.511612768208
5	1105645	1499.426006428002	0.760302051693
5	1105650	1499.429013019605	0.003006591603
5	1105683	1499.465379562825	4.641017716079
5	1105690	1499.471467010169	1.510733007954
5	1105735	1499.561303668315	1.498365625948
5	1105740	1499.562506907749	0.001203239434
5	1105751	1499.570690394099	2.477213400184
5	1105758	1499.578839236524	0.827493401521
5	1105797	1499.612012114905	0.772433094264
5	1105828	1499.66264617873	4.061586813695
5	1105847	1499.691298731435	4.663434234052
5	1105858	1499.736602067944	1.562965818541
5	1105861	1499.737631474975	0.001029407031
5	1105868	1499.752643845543	4.076553656453
5	1105883	1499.757248849091	2.484134095432
5	1105946	1499.829316582781	6.660317797366
5	1105957	1499.83384917087	0.806589223852
5	1105996	1499.908337431714	0.807747921855
5	1106015	1499.921561139751	0.817513686837
5	1106050	1499.9453485867	1.545899515902
5	1106071	1499.95044768014	0.00509909344

