file 4723312 1638631005                                         
version 2
run Sim_1-15-20211204-16:16:36-7140
attr configname Sim_1
attr datetime 20211204-16:16:36
attr experiment Sim_1
attr inifile omnetpp.ini
attr iterationvars $0=100
attr iterationvarsf 100-
attr measurement $0=100
attr network Network
attr processid 7140
attr repetition 0
attr replication #0
attr resultdir results
attr runnumber 15
attr seedset 0
param **.server.p1 0.1
param **.server.p2 0.5
param **.clients.num_clients 100
param **.processor.service_rate 100
param **.disk.service_rate 15Hz
param **.webServer.serv_rate_w 10Hz

vector 0 Network.clients throughput1:vector ETV
attr source service_rate
0	639 1420685 469996 1735759 100.022634086727 370.538839509463 32768 9.7748671634403 146177459.43576 186669747.04632 2.1382018821594e+16
0	1421324 1434339 1735800 3017405 370.548701683017 643.954825579435 32768 10.392001209038 3203803.5555812 47713235.984018 34914531012406
0	2855663 1434715 3017420 4294727 643.95923304821 917.623431938656 32768 8.0482787862292 4615505.3286009 43093970.629367 33354972682952
0	4290378 432932 4294738 4680469 917.625395240685 999.997904164305 9888 10.234653736851 1036052.5568741 12346972.723355 2287008542459.5

