                                                                
version 2
run Sim_1-1-20211204-12:34:14-10288
attr configname Sim_1
attr datetime 20211204-12:34:14
attr experiment Sim_1
attr inifile omnetpp.ini
attr iterationvars ""
attr iterationvarsf ""
attr measurement ""
attr network Network
attr processid 10288
attr repetition 1
attr replication #1
attr resultdir results
attr runnumber 1
attr seedset 1
param **.server.p1 1
param **.server.p2 0
param **.clients.num_clients 80
param **.processor.service_rate 100Hz
param **.disk.service_rate 10Hz
param **.webServer.serv_rate_w 1Hz
param **.processor.numrngs 2

vector 0 Network.clients throughput1:vector ETV
attr source service_rate
vector 1 Network.clients throughput:vector ETV
attr source throughput_s
0	729 1368894 239719 338020 10.000489496359 14.121070640725 32768 650.34028229339 806451612.90323 3992775400.659 1.32357063631e+18
1	1369623 1368854 239719 338020 10.000489496359 14.121070640725 32768 7962.3804692794 7989.3887822042 261189209.03304 2081904094708.7
0	2738477 1369106 338023 436324 14.121072362687 18.221924751604 32768 780.9576350866 7462686567.1642 9902910833.2357 5.5820369326176e+19
1	4107583 1368990 338023 436324 14.121072362687 18.221924751604 32768 7976.0693164063 7987.7571444444 261582006.98821 2088169978486.9
0	5476573 1369006 436327 534628 18.222188427314 22.294137317802 32768 587.93080026025 715819613.45741 3740951188.6423 7.1000603589132e+17
1	6845579 1368974 436327 534628 18.222188427314 22.294137317802 32768 7977.7354727225 7996.7023682938 261662717.77603 2089459240220
0	8214553 1368895 534631 632932 22.29415812392 26.3544513134 32768 741.94216934432 615006150.0615 3578204195.6008 5.5014051824233e+17
1	9583448 1368733 534631 632932 22.29415812392 26.3544513134 32768 7988.9149977203 8008.0385137946 262125557.79275 2096858128182.5
0	10952181 1368936 632935 731236 26.354567358059 30.449778674133 32768 820.78773776739 1481481481.4815 4153090516.8114 2.2950328309764e+18
1	12321117 1368808 632935 731236 26.354567358059 30.449778674133 32768 8000.4007387025 8008.4537160045 262291405.80607 2099511214779
0	13689925 1368938 731239 829540 30.449846280977 34.518959145701 32768 798.96639953997 296471983.39757 2941471310.514 1.6318604196498e+17
1	15058863 1368858 731239 829540 30.449846280977 34.518959145701 32768 8002.4277822901 8012.4646286362 262386104.5862 2101027778593.1
