version 2
run Sim_1-0-20211129-13:53:29-1204
attr configname Sim_1
attr datetime 20211129-13:53:29
attr experiment Sim_1
attr inifile omnetpp.ini
attr iterationvars ""
attr iterationvarsf ""
attr measurement ""
attr network Network
attr processid 1204
attr repetition 0
attr replication #0
attr resultdir results
attr runnumber 0
attr seedset 0
param **.server.p1 0.6
param **.server.p2 0.3
param **.clients.num_clients 3
param **.processor.service_rate 7000Hz
param **.disk.service_rate 400Hz
param **.webServer.serv_rate_w 100Hz

vector 0 Network.clients throughput:vector ETV
attr source service_rate
0	6079	10.008541965047	44.450975808075
0	6086	10.013179502557	215.63167906323
0	6105	10.040809315631	36.19278919194
0	6120	10.158813315077	8.474289046937
0	6127	10.200720086845	23.8624918554
0	6134	10.206181999706	183.08604063246
0	6141	10.210076150834	256.79537519993
0	6148	10.225991445093	62.832642848215
0	6151	10.226196059129	4887.250256869
0	6154	10.231161043158	201.41051696422
0	6157	10.231335413652	5734.9152202322
0	6172	10.306562202175	13.293136921487
0	6191	10.345839429848	25.460045406601
0	6198	10.349057188376	310.77533982065
0	6201	10.349141009775	11930.127770833
0	6204	10.349484060132	2915.0239304371
0	6207	10.350350227943	1154.5106933095
0	6214	10.354992320239	215.42010288371
0	6217	10.355034181092	23888.667533841
0	6220	10.355102922519	14547.268563395
0	6223	10.355279034725	5678.198136931
0	6226	10.356616792816	747.5193061643
0	6233	10.370820223255	70.40552662927
0	6236	10.371019111826	5027.9409971727
0	6247	10.381484437338	95.55364511628
0	6254	10.386591319527	195.81419014403
0	6257	10.386845316563	3937.0538166437
0	6260	10.386904892114	16785.409168939
0	6263	10.387593465853	1452.2772847136
0	6274	10.392868140537	189.58515167454
0	6277	10.393501359595	1579.2323167885
0	6280	10.393622090764	8282.8652143673
0	6283	10.393716680021	10572.025108517
0	6290	10.405374294548	85.780842871749
0	6301	10.419698645377	69.811191581225
0	6304	10.420067065823	2714.2901835584
0	6315	10.676027237067	3.9068578331538
0	6322	10.682963838864	144.16280900433
0	6325	10.683113260959	6692.4506713682
0	6328	10.683162031958	20503.988446085
0	6335	10.69428784749	89.881051606851
0	6338	10.695977910688	591.6938497823
0	6341	10.69619589563	4587.4728356237
0	6344	10.696431549015	4243.5206267035
0	6347	10.697038884234	1646.5371490337
0	6350	10.697373536508	2988.1763182043
0	6353	10.697609492787	4238.0732745832
0	6364	10.776462069211	12.681893799169
0	6371	10.830187767405	18.613066625753
0	6378	10.844347015537	70.625218986027
0	6381	10.844615060272	3730.7205455836
0	6384	10.844808144259	5179.0933859264
0	6387	10.847950536553	318.22888628812
0	6410	10.862047797836	70.93576404134
0	6421	10.868815733118	147.75555000645
0	6424	10.869756317173	1063.1692028843
0	6427	10.86982827319	13897.37844995
0	6430	10.870315148985	2053.9119222388
0	6433	10.870445437361	7675.2817918308
0	6436	10.870529630879	11877.398922801
0	6439	10.870682516489	6540.8379506744
0	6446	10.874273018412	278.51259279217
0	6449	10.875467174713	837.4113163935
0	6452	10.875641950558	5721.6144484954
0	6475	11.056971834344	5.5148107919165
0	6478	11.057170756614	5027.0892243488
0	6481	11.05740398212	4287.6957034022
0	6488	11.064344326225	144.08507487108
0	6491	11.064400068014	17939.861958862
0	6494	11.064548906647	6718.6857326216
0	6497	11.064614204468	15314.446710251
0	6504	11.069963653492	186.9351395842
0	6519	11.087635665284	56.586653051731
0	6522	11.088013647829	2645.6248131776
0	6529	11.157835664465	14.322130012561
0	6532	11.158292078453	2190.9933224921
0	6535	11.159319907084	972.92483380919
0	6546	11.179515193974	49.516503798476
0	6553	11.207157942675	36.175852510782
0	6564	11.240490549109	30.000654223667
0	6579	11.305715563445	15.331541283358
0	6586	11.310340202441	216.23309427286
0	6589	11.311231866122	1121.4990823429
0	6592	11.311314099549	12160.50499756
0	6603	11.327771294764	60.763695571196
0	6614	11.461389725627	7.4839974810459
0	6617	11.462207627856	1222.6400229067
0	6620	11.462316854619	9155.2653629404
0	6623	11.462468945519	6575.0153362233
0	6626	11.463166796863	1432.9699420913
0	6629	11.486124071104	43.559178215246
0	6636	11.537658483758	19.404509501524
0	6639	11.537708419115	20025.890673016
0	6646	11.556252494647	53.925578456277
0	6649	11.556462284724	4766.6696838097
0	6656	11.561671972652	191.95007720624
0	6659	11.561740191082	14658.7952845
0	6662	11.561840061538	10012.971203416
0	6665	11.561862667705	44235.716740481
0	6668	11.562266872895	2473.9909945243
0	6671	11.562821659598	1802.4945345527
0	6674	11.563890020692	936.01311917485
0	6681	11.56552393613	612.02677736129
0	6688	11.572444907891	144.48838032183
0	6719	11.663098481912	11.031004687894
0	6722	11.664127531984	971.770011207
0	6729	11.701312387116	26.892668976393
0	6736	11.713549390542	81.719352784955
0	6743	11.715020266245	679.86710091165
0	6750	11.770206509884	18.120457818102
0	6757	11.783199783482	76.962898722761
0	6768	11.797764613534	68.658542285063
0	6771	11.798085718755	3114.2439754974
0	6774	11.798234726249	6711.0718605871
0	6777	11.798296657776	16146.864907755
0	6784	11.800612958396	431.7228909605
0	6791	11.807087566602	154.44949998261
0	6798	11.896184595134	11.223718865561
0	6801	11.896296442237	8940.7769461852
0	6804	11.89651483355	4578.9367088974
0	6807	11.896653201656	7227.098996354
0	6810	11.896858250022	4876.8981655772
0	6813	11.896943857028	11681.286926446
0	6820	11.910115663159	75.919732651279
0	6827	11.932512104884	44.649949857158
0	6830	11.932908013853	2525.8331543381
0	6837	11.93504463593	468.02848794115
0	6840	11.935866969953	1216.0508650145
0	6843	11.93613170695	3777.3337740172
0	6846	11.936388388209	3895.8824025403
0	6849	11.9368460817	2184.8683008691
0	6852	11.937858540513	987.69449893662
0	6855	11.941429971107	279.99984143049
0	6858	11.94702002215	178.8892431049
0	6869	12.02080908595	13.552143752771
0	6880	12.068355511647	21.032075184215
0	6883	12.069072461193	1394.7982889161
0	6886	12.069418138615	2892.8704519209
0	6889	12.06958395141	6030.8976759001
0	6896	12.07230518582	367.48028627199
0	6899	12.072763120997	2183.7151855229
0	6910	12.090396438657	56.710825454499
0	6917	12.104843922603	69.216204270423
0	6924	12.198655347054	10.659682505112
0	6927	12.198749948485	10570.664623456
0	6934	12.202909228094	240.42625021799
0	6937	12.203094750628	5390.1807960428
0	6940	12.20313179436	26995.120254082
0	6943	12.203414967624	3531.4068350747
0	6946	12.20357005128	6448.1327419828
0	6957	12.213106744442	104.85814978137
0	6968	12.227487299281	69.538346134462
0	6971	12.227908605906	2373.5681820812
0	6974	12.228006097161	10257.330260032
0	6981	12.231021800514	331.59760193429
0	6984	12.233848347741	353.78853409832
0	7003	14.187566526887	0.51184454885766
0	7006	14.187669844169	9678.9228350006
0	7013	14.2001797428	79.936698889147
0	7016	14.200465306019	3501.8515462245
0	7019	14.200768687428	3296.1808810111
0	7022	14.200938815135	5877.9373309252
0	7025	14.20106838475	7717.8588513981
0	7032	14.208031959137	143.60441124415
0	7035	14.208319042168	3483.3128120345
0	7038	14.209237988852	1088.2024141457
0	7045	14.226107962972	59.276913698075
0	7056	14.23093047482	207.36081766491
0	7063	14.237944469945	142.57209795252
0	7066	14.238318443309	2673.9872308125
0	7069	14.238476241797	6337.1963361271
0	7072	14.23869051298	4666.9831472392
0	7075	14.238811634004	8256.2049673556
0	7078	14.238895026155	11991.536229831
0	7081	14.239108151861	4692.0665684505
0	7088	14.244146196476	198.48970710237
0	7091	14.244313155224	5989.503467048
0	7094	14.244419224142	9427.8325720264
0	7101	14.252989099657	116.68780932111
0	7108	14.26364491086	93.845506545617
0	7115	14.28551275988	45.729234689951
0	7118	14.286057730527	1834.9612139753
0	7121	14.286396567702	2951.2700310997
0	7124	14.286444793841	20735.642967396
0	7127	14.286857535245	2422.8245344632
0	7130	14.287363492083	1976.4531772175
0	7133	14.287526757389	6125.0000045938
0	7140	14.292528894767	199.91454141146
0	7155	14.334999928674	23.545459293262
0	7158	14.335181026171	5521.8874725806
0	7161	14.335219868531	25745.088609446
0	7168	14.33927111699	246.83748975664
0	7171	14.339313011639	23869.396781436
0	7174	14.339579942901	3746.2828164353
0	7177	14.339905288141	3073.6580009592
0	7184	14.347403016537	133.3737296397
0	7187	14.347930659565	1895.2207210819
0	7194	14.354903823552	143.40692429782
0	7197	14.355089927888	5373.3299368157
0	7204	14.367669143627	79.496211906093
0	7207	14.368213630154	1836.5927353791
0	7218	14.650142548279	3.5469933579379
0	7221	14.654951276249	207.95520275604
0	7224	14.655201529501	3995.9520685869
0	7227	14.655261328898	16722.576650731
0	7238	14.699283236062	22.715962674552
0	7245	14.704169112229	204.67158106752
0	7252	14.709139288146	201.20012182659
0	7263	14.722742056169	73.51444928776
0	7266	14.723912228276	854.57514669678
0	7269	14.724023175179	9013.3205430709
0	7276	14.727624523328	277.67379287606
0	7287	14.733351430666	174.6143146694
0	7290	14.736395169317	328.54331947043
0	7293	14.736624318332	4363.9725006018
0	7296	14.736748331808	8063.6397934689
0	7307	14.786128903339	20.25087942476
0	7310	14.786204803922	13175.129366266
0	7313	14.786378139631	5769.1516985689
0	7316	14.786492504886	8743.9143995263
0	7319	14.786528131278	28069.07867628
0	7330	14.827404428701	24.464055284942
0	7341	14.849026495189	46.249048422591
0	7348	14.864545052886	64.438978127028
0	7351	14.864917739951	2683.2162795883
0	7358	14.867803973864	346.47226459916
0	7361	14.867895780377	10892.473391294
0	7376	14.887167396372	51.889784450845
0	7383	14.898019251823	92.150140085754
0	7390	14.907607047533	0.16083077108443
0	7393	14.907931672816	3080.4747885272
0	7412	14.925046226207	37.000072068444
0	7415	14.925085516228	25451.755294302
0	7418	14.925158298235	13739.659583721
0	7425	14.934293618017	37.933467821717
0	7428	14.93446294568	5905.7095709164
0	7431	14.934872206359	2443.4304376453
0	7434	14.93494776556	13234.655564979
0	7437	14.935090339855	7013.8870404374
0	7440	14.935274888233	5418.6333731961
0	7447	14.946825815423	86.573136818465
0	7454	14.962105034309	65.448371900495
0	7457	14.962267445853	6157.1977913097
0	7464	14.97354344527	88.683935057
0	7471	14.976453167572	343.67540823832
0	7478	14.978936909253	402.61835908692
0	7489	15.004331663208	39.378211805951
0	7492	15.004432663169	9900.993922166
0	7503	15.010927478787	153.96895906153
0	7506	15.011220530979	3412.3614403812
0	7513	15.017260634832	165.5600672335
0	7516	15.017311125514	19805.634631752
0	7519	15.017477789011	6000.1141101701
0	7522	15.017627711953	6670.0932269592
0	7529	15.03572080239	55.269717657246
0	7532	15.035911037647	5256.649139439
0	7539	15.046344677556	95.843829068454
0	7542	15.046606178139	3824.0832526175
0	7545	15.047087136182	2079.1834434506
0	7548	15.047547109981	2174.0368737829
0	7551	15.04763824143	10973.160319222
0	7554	15.04778434025	6844.6822500004
0	7565	15.072297167541	40.794967799049
0	7568	15.072340844304	22895.46961161
0	7571	15.072923154915	1717.2965443352
0	7574	15.076306354801	295.57816082286
0	7589	15.134398370757	17.214069498938
0	7592	15.134793268147	2532.3033915215
0	7595	15.135150037117	2802.9343471211
0	7606	15.15793287409	43.892689974699
0	7617	15.171195145718	4.0644318533186
0	7628	15.18360711438	38.949545875735
0	7631	15.185505942491	526.64061281111
0	7638	15.22236625055	19.542278856067
0	7649	15.224481334623	25.65721459872
0	7652	15.224772691907	3432.2121152118
0	7659	15.225520801802	317.00229925445
0	7670	15.235512965827	93.107494971599
0	7677	15.250820303475	65.328146735605
0	7680	15.251456918351	1570.8084081906
0	7683	15.251533918798	12986.93759531
0	7694	15.284332081546	30.489512710921
0	7709	15.304642765175	49.235171905892
0	7716	15.334692278477	33.278409202503
0	7725	15.336438781026	9.0156709218484
0	7728	15.336506379056	551.23735231441
0	7731	15.336563297521	17568.991011968
0	7736	15.337174804878	1358.6516215238
0	7739	15.337911460583	1357.4862628669
0	7766	15.374203542294	27.554219897419
0	7769	15.374326411486	8138.7366818527
0	7772	15.37441488186	11303.218860587
0	7787	15.418118937566	22.881171640615
0	7790	15.418180558098	16228.357132652
0	7793	15.420834404121	376.81161278135
0	7800	15.456527412503	28.016691372653
0	7807	15.467334555289	92.531395189433
0	7810	15.467445420697	9019.9460592794
0	7813	15.467658552233	4691.9382216623
0	7816	15.467694995318	27440.047954228
0	7823	15.471949055539	235.06954486999
0	7826	15.472031913045	12068.912622111
0	7829	15.472211864091	5557.0668925148
0	7832	15.472336441775	8027.1198491698
0	7835	15.472423636773	11468.547771513
0	7842	15.475360347784	340.51699205482
0	7849	15.477895360605	394.47532245834
0	7852	15.477958093123	15940.696019886
0	7875	15.625408619836	6.7819357603681
0	7878	15.626906443816	667.63519168654
0	7881	15.626942498523	27735.629636375
0	7892	15.715472096585	11.295657293052
0	7895	15.715691347588	4560.9825556876
0	7898	15.716202216489	1957.449353528
0	7901	15.716313764664	8964.7365364785
0	7912	15.721616505962	188.58170591448
0	7915	15.721803329776	5352.6366826019
0	7918	15.722061844171	3868.2565433155
0	7921	15.722485095396	2362.6629787073
0	7932	15.727610903413	195.09119278043
0	7935	15.727816683412	4859.5587756806
0	7942	15.733927322119	163.64901411279
0	7945	15.734604233205	1477.2988959439
0	7948	15.734634885311	32624.185757416
0	7959	15.772309954067	26.542751825522
0	7966	15.774242522616	517.44606964521
0	7969	15.775861895905	617.52284466636
0	7984	15.891931350654	8.6155311245538
0	7987	15.891983469696	19186.845376014
0	7990	15.892916350843	1071.9479144968
0	8005	17.028840755776	0.8803402723432
0	8012	17.030330659719	671.18420935678
0	8015	17.030823756086	2028.0011513449
0	8026	17.040113455024	107.64611497897
0	8029	17.040152270618	25762.84160433
0	8056	17.853917079348	0.39724253587997
0	8059	17.854083982652	5991.4931342522
0	8070	17.960042455487	9.4376596155478
0	8073	17.960510809241	2135.138218621
0	8076	17.960829666601	3136.1985810834
0	8079	17.962174143344	743.78378443992
0	8082	17.96249445809	3121.9293288483
0	8085	17.962559747736	15316.364251692
0	8092	17.991857299594	34.132544754825
0	8095	17.991906715624	20236.348407592
0	8098	17.992016323488	9123.4329682768
0	8101	17.992212772297	5090.3846406114
0	8104	17.992307918535	10510.137037683
0	8115	18.002901496002	94.396817610962
0	8122	18.006028592336	319.78547930465
0	8125	18.006346684947	3143.7385384598
0	8128	18.006643880879	3364.7836067958
0	8131	18.006692417221	20603.118380862
0	8134	18.007158211168	2146.8720373904
0	8137	18.007381609919	4476.300764994
0	8140	18.007467254778	11676.124074184
0	8143	18.007551748467	11835.203455255
0	8150	18.009645386439	477.63749672763
0	8153	18.009854504639	4781.9845427132
0	8156	18.010547801158	1442.3842794457
0	8163	18.063426272871	18.911287856948
0	8174	18.115488858401	19.207651518263
0	8177	18.115569236373	12441.219591855
0	8184	18.124418609341	113.00235662075
0	8191	18.12723175837	355.47352439962
0	8194	18.133307979891	164.5759616472
0	8197	18.133496601603	5301.6166028649
0	8200	18.134120055711	1603.9672963387
0	8203	18.136710091391	386.09506723089
0	8206	18.136871422338	6198.438790544
0	8213	18.138701202192	546.51383214978
0	8216	18.143345968913	215.29606545766
0	8219	18.143619395152	3657.2934757736
0	8222	18.146757002828	318.71416163631
0	8225	18.147258600181	1993.6309352892
0	8236	18.202888378805	17.975983811817
0	8239	18.20332804148	2274.4709907431
0	8242	18.203371627878	22942.93738152
0	8249	18.217589240047	70.335298790918
0	8256	18.222635293765	198.17466398205
0	8259	18.224891840924	443.15493075853
0	8270	18.258789477415	29.500581855183
0	8273	18.258837009311	21038.504334016
0	8276	18.262834305009	250.16913322183
0	8283	18.362844525127	9.9989780926401
0	8314	18.434282790001	13.998100342495
0	8333	18.488817326594	18.337003713136
0	8348	18.505025747348	61.69632533467
0	8359	18.506770483149	573.15267986525
0	8362	18.506936706992	6015.9841208821
0	8365	18.507193588	3892.8529897391
0	8368	18.507261954165	14627.11854614
0	8371	18.507749657719	2050.4259027811
0	8386	18.528761470199	47.592277008556
0	8389	18.534103166039	187.2064658777
0	8392	18.534150176392	21271.910040752
0	8399	18.537709001157	280.99163797968
0	8406	18.547836664775	98.739456375969
0	8409	18.547873735952	26975.134887139
0	8420	18.59595745259	20.797061248999
0	8423	18.595999428261	23823.323753419
0	8426	18.596186147538	5355.6334196817
0	8429	18.601918194452	174.45774868967
0	8432	18.602065929138	6768.8910916966
0	8435	18.602517467696	2214.6502934972
0	8438	18.603890050562	728.5534627969
0	8441	18.604167074701	3609.7937299247
0	8444	18.604341795803	5723.4071245727
0	8447	18.612653445384	120.31306063311
0	8450	18.612827913208	5731.7158950753
0	8457	18.644369697031	31.703977353076
0	8460	18.644629028791	3856.0645252244
0	8463	18.644806225863	5643.4341082114
0	8470	18.660659721218	63.07757233389
0	8473	18.660958528288	3346.6410282729
0	8480	18.665314028565	229.59475063764
0	8487	18.674319106225	111.0484592978
0	8498	19.06150735088	2.5827230392571
0	8501	19.061625239213	8482.6036177812
0	8504	19.061736105429	9019.8803213415
0	8507	19.06240786084	1488.6370598956
0	8510	19.062539499109	7596.575126645
0	8517	19.064291429469	570.7989443142
0	8528	19.161951722576	10.239576067055
0	8531	19.162425640827	2110.0685569503
0	8538	19.177960117572	64.372943898601
0	8541	19.178438940804	2088.4533856536
0	8544	19.178539970897	9898.040972802
0	8547	19.178648120948	9246.4126531018
0	8554	19.182266428046	276.37234013463
0	8565	19.185400699297	319.05343217533
0	8568	19.185537009265	7336.2206350162
0	8575	19.19107792403	180.47561502239
0	8578	19.191501733028	2359.5534892348
0	8581	19.191881638607	2632.2329949253
0	8592	19.279033826571	11.474181238147
0	8595	19.279264529095	4334.5863004082
0	8598	19.279576660893	3203.7748361671
0	8601	19.279627714727	19587.167537701
0	8608	19.287002561836	135.59603137801
0	8615	19.295700678092	114.96742174608
0	8622	19.297916822593	451.23411381738
0	8629	19.299411882871	668.86935243691
0	8640	19.33233359104	30.375094599181
0	8647	19.335645749267	301.91794336642
0	8650	19.33577000444	8047.9546714727
0	8653	19.335965561939	5113.5855444746
0	8664	19.343030838134	141.53728352583
0	8667	19.343180330916	6689.2861757031
0	8670	19.343248080131	14760.318625094
0	8673	19.343450251202	4946.3060914388
0	8684	19.36072823599	57.87712006174
0	8691	19.362187264064	685.38777136649
0	8694	19.362261653946	13442.688348397
0	8697	19.362585997728	3083.148361389
0	8700	19.362686940571	9906.5963497779
0	8711	19.369661456053	143.37913545118
0	8714	19.379330669514	103.42102840458
0	8725	19.446842844961	14.812143044999
0	8728	19.44722040202	2648.6062865534
0	8731	19.447426099216	4861.5149814682
0	8738	19.650447562958	4.9255875786158
0	8741	19.650708897779	3826.5088294529
0	8744	19.651180757082	2119.2757960735
0	8747	19.651454987288	3646.5713044026
0	8750	19.651690785828	4240.9083618584
0	8753	19.651728971099	26188.107974931
0	8760	19.655597008616	258.52903329014
0	8763	19.655663700436	14994.342634524
0	8770	19.671777964263	62.056821877551
0	8773	19.672575964621	1253.1322698981
0	8776	19.672889566783	3188.7535265143
0	8779	19.672994608496	9520.0275342044
0	8786	19.711201660193	26.173178918135
0	8789	19.711314257401	8881.2148876729
0	8792	19.711364174442	20033.238749068
0	8795	19.711551183605	5347.3315636411
0	8802	19.736508866127	40.06782276834
0	8809	19.745072690414	116.77026133266
0	8812	19.745342646781	3704.3023326803
0	8819	19.747394392021	487.38994515713
0	8822	19.748797499418	712.70381877974
0	8825	19.748862283862	15435.804311294
0	8828	19.75110002568	446.87907780789
0	8839	19.767325912354	61.629913981982
0	8846	19.77527891375	125.73869287926
0	8849	19.776184430765	1104.3414794365
0	8876	19.818997409901	23.357402829254
0	8883	19.820414129218	705.85611984
0	8886	19.820456700246	23490.153914066
0	8889	19.820546426205	11145.046663697
0	8892	19.820721046716	5726.7041212587
0	8895	19.821076944824	2809.7929646763
0	8898	19.821153508244	13061.067543743
0	8901	19.821388559364	4254.3936825317
0	8912	19.936645633512	8.6762570314419
0	8915	19.936885843195	4163.0295145096
0	8918	19.946770034353	101.1716572469
0	8925	19.951041537548	234.10962238552
0	8928	19.951125589531	11897.399255887
0	8935	19.962506288638	87.868064219792
0	8942	20.005450049339	23.286269848665
0	8945	20.005609741401	6262.0520236003
0	8948	20.005718449685	9198.9309664754
0	8955	20.009357921368	274.76515469842
0	8958	20.009453748255	10435.484562908
0	8965	20.050222299799	24.528710541034
0	8968	20.050321052889	10126.2654161
0	8975	20.054852527676	220.67870770656
0	8982	20.060896907589	165.4429427656
0	8997	20.078775341456	55.933310906265
0	9000	20.078938091359	6144.3969032657
0	9003	20.079331969248	2538.8579250764
0	9006	20.079515400592	5451.6309927926
0	9009	20.079914762015	2503.9974880098
0	9012	20.080021320049	9384.5575266526
0	9019	20.086061793532	165.54993624496
0	9026	20.089758395352	270.51872197585
0	9033	20.143759743016	18.518056368187
0	9044	20.160102958587	61.187469237965
0	9047	20.160157225231	18427.52612452
0	9054	20.167580835828	134.70534141488
0	9057	20.167755979755	5709.5899191526
0	9060	20.168129424214	2677.7743675131
0	9063	20.16827942572	6666.5997340053
0	9066	20.168542012235	3808.2686767064
0	9069	20.16918499386	1555.254397822
0	9084	20.273987632818	9.5417444631404
0	9087	20.274188888733	4968.7980599229
0	9094	20.277299402113	321.49033867843
0	9097	20.277341568736	23715.439578835
0	9104	20.284900200047	132.29908416683
0	9115	20.501518822662	4.6164082659565
0	9122	20.503113586717	627.05200613516
0	9125	20.50316032913	21393.846312556
0	9128	20.503580290747	2381.1699915423
0	9131	20.503995079009	2410.8686084275
0	9134	20.504052196967	17507.628686586
0	9137	20.504141150653	11241.805089448
0	9140	20.504769513514	1591.4371489247
0	9147	20.518843805666	71.051530634732
0	9150	20.519171862034	3048.2566337502
0	9161	20.534475567338	65.343652411983
0	9168	20.562137006151	36.151409431748
0	9175	20.572977829647	92.24391489899
0	9178	20.573129891489	6576.2717776364
0	9181	20.5732253891	10471.466139608
0	9188	20.577663581451	225.31695810225
0	9191	20.577794179556	7657.0789445988
0	9198	20.584296606975	153.78872159003
0	9201	20.584331767131	28441.284503971
0	9204	20.584538186988	4844.4951688926
0	9207	20.585513181836	1025.646445262
0	9226	20.622010773199	27.399068339994
0	9229	20.623043777509	968.05017202687
0	9232	20.624923116356	532.10202172764
0	9235	20.625776634707	1171.6209719784
0	9238	20.626284978682	1967.1719331384
0	9245	20.629805527551	284.04661807295
0	9248	20.630345121088	1853.2468078838
0	9259	20.956096821139	3.0698228124164
0	9266	20.9571885663	915.96467355444
0	9273	20.95993944537	363.52016012103
0	9276	20.960127609101	5314.5204694097
0	9283	20.962474171681	426.15526580161
0	9286	20.962702617712	4377.401505391
0	9297	20.978008792953	65.333107994304
0	9304	21.05588090053	12.841568452622
0	9307	21.056107109172	4420.6975965136
0	9314	21.095947780564	25.099978616344
0	9317	21.096199873321	3966.7938575482
0	9328	21.113840453653	56.687477462745
0	9331	21.113919467731	12655.972521757
0	9334	21.114056966562	7272.7891046579
0	9341	21.117512349962	289.40348558716
0	9344	21.117573179781	16439.305860831
0	9363	21.155357360533	26.466102482507
0	9378	21.728966682876	1.7433468408696
0	9381	21.730461625901	668.92181392665
0	9388	21.841114145514	9.0372998599348
0	9391	21.841353561243	4176.8350148791
0	9394	21.842228735736	1142.6292790734
0	9401	21.852560509335	96.788803047019
0	9412	22.179846091728	0.045085975613372
0	9419	22.184118546597	234.05747530671
0	9422	22.184532846337	2413.7113868331
0	9425	22.185101525641	1758.460336021
0	9432	22.189670434037	218.87066085096
0	9435	22.190104223321	2305.2667202355
0	9438	22.190396971911	3415.9003122782
0	9441	22.190843809353	2237.9503282538
0	9448	22.199590562381	114.32813945916
0	9451	22.199948591162	2793.0715435975
0	9454	22.201145437012	835.52948777823
0	9465	22.227459673036	38.002243313769
0	9468	22.227526566134	14949.225404391
0	9475	22.25739630083	33.478703784199
0	9478	22.257593935454	5059.8421458782
0	9489	22.267329124121	102.72014587553
0	9492	22.268789127778	684.92979124093
0	9495	22.268891086726	9807.8689474121
0	9498	22.269012992551	8203.053463606
0	9501	22.269083894416	14104.001354548
0	9508	22.276351988345	137.58765499851
0	9515	22.30308057993	37.41311983536
0	9522	22.324919416554	45.789984934502
0	9525	22.325155988858	4227.0374980158
0	9532	22.32732122047	461.84435626095
0	9535	22.355527793598	35.452729243714
0	9550	22.414128379747	17.064675726235
0	9569	22.438297629791	41.374887436702
0	9580	22.442407005194	243.34598374
0	9587	22.450007857759	131.56418854968
0	9590	22.450294305518	3491.0379592113
0	9605	22.470246603133	1.6189453025423
0	9608	22.470781502011	1869.5122407791
0	9623	22.485005338183	70.304521783549
0	9626	22.485261184858	3908.5909558918
0	9629	22.485304140902	23279.611129926
0	9636	22.487193754728	529.2086595899
0	9643	22.496743639379	104.71330665709
0	9646	22.497391554953	1543.4109629845
0	9649	22.498490700489	909.79762665387
0	9652	22.498543906813	18794.758307302
0	9659	22.501353266309	355.95302111524
0	9662	22.50175097036	2514.4325220866
0	9665	22.502543255321	1262.1721340486
0	9672	22.505386351549	351.72921343695
0	9675	22.505504512439	8463.0371352145
0	9690	22.660889881112	4.7484378395863
0	9693	22.661322162161	2313.3098300592
0	9696	22.661443919549	8213.0539791146
0	9699	22.661722979966	3583.4533996271
0	9710	22.726286640605	4.5293521187916
0	9713	22.727538448685	798.84450018888
0	9720	22.758695549054	32.095412864381
0	9731	22.818091229499	6.3951601619033
0	9738	22.864596416863	9.4427932526821
0	9741	22.864708856072	8893.6947252982
0	9744	22.86509528312	2587.8105716865
0	9751	22.869583934593	222.78406020498
0	9754	22.869703275831	8379.3332192515
0	9761	22.906423350149	27.233060351128
0	9764	22.906514671486	10950.343401127
0	9767	22.907176892299	1510.070327554
0	9774	22.910465093964	304.11760040271
0	9781	22.915405101932	202.42882328889
0	9784	22.915745097826	2941.2119900483
0	9787	22.915833572795	11302.63182121
0	9790	22.919619542937	264.13309204592
0	9793	22.921483277111	536.55720539468
0	9796	22.921648655375	6046.7438453702
0	9799	22.921930968453	3542.166757149
0	9806	22.925468155332	282.71053642569
0	9809	22.925527596928	16823.236038279
0	9812	22.925627423826	10017.340216261
0	9819	22.9485392127	43.645653575954
0	9822	22.948580113948	24449.131723316
0	9829	22.953367049254	7.3923041221344
0	9834	22.954304338378	174.69615530082
0	9837	22.95443507481	7648.9772950206
0	9866	23.17934366189	4.4252367018652
0	9873	23.183649792676	232.2270385403
0	9880	23.18899743539	186.99828194992
0	9887	23.19428379745	189.16600653721
0	9890	23.195556179715	785.92733293088
0	9901	23.1993491916	263.64272781602
0	9904	23.199604540066	3916.2169863985
0	9907	23.200758382033	866.66981146474
0	9910	23.201260078201	1993.2382660734
0	9913	23.201365441822	9490.941849844
0	9924	23.227301694356	38.556071224596
0	9927	23.227375043649	13633.396575479
0	9938	23.24573504214	54.466235413374
0	9945	23.250010026684	233.91897437466
0	9948	23.250066153367	17816.837670596
0	9951	23.268285696598	54.886118017412
0	9954	23.268446355576	6224.3642555724
0	9961	23.271939699542	286.25867069856
0	9968	23.27701397516	197.07246418636
0	9975	23.279715254808	370.19491881945
0	9978	23.279746432769	32073.938382308
0	9981	23.283044723841	303.18731069227
0	9984	23.283443402438	2508.2861420825
0	9987	23.283518203568	13368.781995673
0	9994	23.329046628607	21.964300305653
0	10005	23.616559096322	1.5102910746486
0	10008	23.617182220979	1604.8153267028
0	10015	23.645153046462	35.751536922204
0	10018	23.646103857304	1051.7339052387
0	10021	23.646191273811	11439.487052485
0	10028	23.651357901829	193.54983492446
0	10051	23.662683805475	88.293175649006
0	10062	23.686093942917	2.8007492562506
0	10065	23.686164573842	14158.104258156
0	10068	23.686511448179	2882.8883930955
0	10075	23.688050631594	39.421565603392
0	10078	23.688576311057	1902.299919219
0	10081	23.688637919733	16231.48012465
0	10084	23.688839038181	4972.1942961692
0	10095	23.704544674169	63.671410744783
0	10098	23.707033147409	401.85282442499
0	10101	23.707093837319	16477.203541742
0	10108	23.774354294371	14.867576639078
0	10115	23.777130847939	360.15872754089
0	10118	23.77744537348	3179.3920354468
0	10125	23.781038200403	278.33236096021
0	10132	23.847232877844	15.106954798463
0	10139	23.86617393833	52.795354343498
0	10146	23.868366186771	456.15267927564
0	10153	23.876881561841	117.43463931765
0	10156	23.877003908956	8173.4661254579
0	10159	23.877539046786	1868.6774582914
0	10174	24.143127465282	3.7652244238017
0	10177	24.143301293326	5752.811669445
0	10180	24.144960578054	602.66932077736
0	10191	24.151566888171	151.37042952717
0	10198	24.174307724044	43.973757410883
0	10213	25.010597713084	1.1957574682293
0	10220	25.012678813006	480.51513021007
0	10227	25.041995194136	34.110622166004
0	10230	25.042079472401	11865.455464704
0	10233	25.042866068664	1271.3002171992
0	10240	25.046371766849	285.24988382592
0	10243	25.047011358121	1563.4985087789
0	10246	25.047157830835	6827.2101519195
0	10249	25.048330518638	852.74187847931
0	10252	25.048485009742	6472.864612321
0	10255	25.048873082225	2576.8382037023
0	10258	25.049127646254	3928.2847774223
0	10269	25.05437883175	190.43318899356
0	10272	25.054421949697	23192.198830802
0	10275	25.054572930878	6623.3420177048
0	10278	25.054973404497	2497.0433820261
0	10281	25.055019089883	21888.837712786
0	10288	25.05892689538	255.89809952611
0	10295	25.070418620671	87.019135480307
0	10302	25.07238140004	509.48161356999
0	10305	25.073976124418	627.06760729032
0	10312	25.076110619496	468.49487277197
0	10315	25.07632095339	4754.3454884166
0	10322	25.09430989031	55.589721863342
0	10329	25.126643980083	30.927111510497
0	10340	25.146944525437	49.259760393726
0	10351	25.161038653427	70.951533908981
0	10354	25.161394408668	2810.9213435312
0	10357	25.1614740999	12548.431927869
0	10364	25.172858505514	87.839456349855
0	10367	25.173032538797	5746.0273274279
0	10374	25.176060335688	330.27314446767
0	10381	25.179206788776	317.81818194392
0	10384	25.179683328429	2098.4612585849
0	10407	25.188686333001	111.07403000883
0	10414	25.191070827224	419.37614708996
0	10417	25.191390650734	3126.7244862643
0	10432	25.230505536501	25.565714443264
0	10435	25.230598894941	10711.404346517
0	10438	25.230750523011	6595.0849338121
0	10441	25.230843719395	10730.030040651
0	10444	25.231113310984	3709.3145365155
0	10447	25.231217082824	9636.5256701625
0	10454	25.234853928209	274.96357258531
0	10457	25.235032545407	5598.5650385133
0	10460	25.235268385017	4240.1698340665
0	10487	25.321568657265	11.587448961068
0	10490	25.321657644746	11237.535760789
0	10497	25.322674736894	983.19508410953
0	10500	25.323176126913	1994.45533837
0	10503	25.323517522661	2929.1518885584
0	10506	25.325304814735	559.50564238892
0	10509	25.327813392026	398.63232581579
0	10512	25.32793847207	7994.8804623062
0	10515	25.327994093366	17978.725270983
0	10518	25.328204400844	4754.9426654244
0	10521	25.328281267742	13009.501176957
0	10524	25.328371759697	11050.706109731
0	10527	25.328502501497	7648.663243125
0	10530	25.32853982856	26790.213845649
0	10533	25.328627988157	11343.064555978
0	10536	25.32907251496	2249.58313706
0	10539	25.329164327549	10891.752546048
0	10542	25.32928541283	8258.6421053109
0	10553	25.354875318705	39.077908488008
0	10556	25.354964843795	11170.05299855
0	10563	25.358420083722	289.41550257792
0	10566	25.358540726702	8288.9199189211
0	10569	25.358760981554	4540.1951009007
0	10572	25.358930046034	5914.9030003227
0	10575	25.359081401994	6606.9416757688
0	10578	25.359122547607	24303.927614349
0	10589	25.37164649499	79.847029807663
0	10592	25.372167396158	1919.7499668498
0	10595	25.372237074102	14351.743788537
0	10602	25.386414372708	70.535299268987
0	10605	25.389342255307	341.54374917271
0	10608	25.389500049476	6337.3697921626
0	10611	25.389581935597	12212.081703076
0	10614	25.39002847534	2239.442324398
0	10617	25.390085722714	17468.050150213
0	10620	25.390186488121	9924.0406978161
0	10623	25.392444739698	442.82045905995
0	10638	25.432200601027	25.153523696154
0	10649	25.454355195036	45.137365171023
0	10652	25.455152691918	1253.9233977845
0	10655	25.455452305953	3337.6273578105
0	10658	25.455556143177	9630.4577633932
0	10661	25.455636415558	12457.584882153
0	10676	25.466775103949	89.777177069429
0	10679	25.466816308101	24269.398870289
0	10682	25.467891107731	930.40597715874
0	10685	25.46958947629	588.80034884113
0	10692	25.484600022176	66.619828991874
0	10695	25.48526022233	1514.6921640979
0	10698	25.485327059986	14961.625823623
0	10701	25.485378147791	19574.142987744
0	10708	25.501575913906	61.736908219334
0	10711	25.501648875358	13705.867586078
0	10718	25.503301637939	605.0475800311
0	10725	25.51099344628	130.00843958496
0	10732	25.525058375346	71.098829955521
0	10735	25.525788849667	1368.9735165927
0	10746	25.536862237258	90.306601460673
0	10749	25.536904893357	23443.306430811
0	10760	25.543092855116	161.60410147098
0	10763	25.544555253867	683.80802384862
0	10766	25.54522856466	1485.1982329652
0	10769	25.545385347046	6378.267517883
0	10772	25.54546375688	12753.50232217
0	10775	25.545527445148	15701.478959987
0	10778	25.545807064419	3576.2914209157
0	10789	25.578741181177	30.363650173102
0	10792	25.578898943475	6338.6500620066
0	10795	25.579645868291	1338.8228354164
0	10802	25.58817790831	117.20526366181
0	10805	25.588408067067	4344.8270795102
0	10808	25.588690650825	3538.7738031285
0	10811	25.58894222049	3975.0420624045
0	10814	25.58945364226	1955.3332663175
0	10817	25.590430558945	1023.6287447583
0	10820	25.590873524433	2257.5122150374
0	10823	25.591395120897	1917.1909110181
0	10830	25.822266752945	4.3314113177495
0	10833	25.822429417465	6147.6221120623
0	10840	25.824710674252	438.35486022381
0	10843	25.826441172	577.86842031764
0	10846	25.83423047041	128.38126713905
0	10849	25.83455904008	3043.4945501817
0	10852	25.835078229663	1926.0787056277
0	10867	25.845639589654	94.684775526273
0	10874	25.849106372537	288.45186841774
0	10877	25.849272078435	6034.7882125475
0	10880	25.849427194121	6446.8012603187
0	10883	25.849498321709	14059.242385669
0	10890	25.853468977507	251.8475664659
0	10897	25.860619009148	139.85952093775
0	10900	25.870983774937	96.480713636703
0	10903	25.871590075335	1649.3474246408
0	10910	25.873562975314	506.86806763862
0	10921	25.882947730547	106.55578916791
0	10924	25.88399878129	951.42885028149
0	10927	25.884251122801	3962.8834591547
0	10930	25.884516201391	3772.4661203306
0	10933	25.884698836629	5475.3946223675
0	10936	25.884892419443	5165.747823048
0	10939	25.88520403964	3209.0346185103
0	10946	25.906194240668	47.641277883239
0	10949	25.910142169589	253.29736679927
0	10960	25.972052532828	16.152384636149
0	10963	25.972807927969	1323.8104744441
0	10970	25.974622576092	551.071024363
0	10973	25.974926690176	3288.2396857358
0	10976	25.975036101093	9139.8557604631
0	10979	25.975508583313	2116.4817588268
0	10982	25.976055573749	1828.1855297375
0	10989	25.980827640417	209.55281423575
0	11004	26.106141852768	7.9799408322421
0	11007	26.106300860407	6289.0060269369
0	11010	26.106479065058	5611.5258181449
0	11013	26.106564121436	11756.907871153
0	11020	26.123818039291	57.957850988042
0	11023	26.123859733188	23984.325571678
0	11042	26.20762678373	11.937868094074
0	11045	26.207679458655	18984.364951635
0	11052	26.302680580063	10.526191535206
0	11059	26.332401016431	33.646881479732
0	11062	26.33266580607	3776.5828141032
0	11069	26.334997916318	428.79619471575
0	11072	26.335409620754	2428.9269499151
0	11079	26.339669120912	234.76933041588
0	11082	26.34031049899	1559.1427806798
0	11085	26.340382087752	13968.672904275
0	11088	26.340542062889	6250.9713618811
0	11091	26.340582837317	24525.175435937
0	11094	26.340615682881	30445.511606986
0	11097	26.341313259875	1433.5335147248
0	11112	26.361094550598	50.552818519435
0	11115	26.361138095785	22964.650490535
0	11118	26.362034954425	1115.0029172936
0	11121	26.362279513447	4088.9924723366
0	11124	26.362489165386	4769.8104046631
0	11127	26.362561750834	13776.866128869
0	11138	26.469465202885	9.3542348803005
0	11145	27.467518281881	1.0019507188996
0	11148	27.467624974673	9372.7043903772
0	11151	27.549757740863	12.1754087484
0	11158	27.553998977844	0.25856579816474
0	11163	27.554886863191	194.96512971449
0	11166	27.555005783915	8408.963268673
0	11179	27.563227197801	108.36326015847
0	11182	27.563292664717	15274.890908257
0	11191	27.583799120895	34.730257236061
0	11202	27.591787199566	125.18654875426
0	11205	27.592121300318	2993.1090966236
0	11214	27.657251829126	10.642921382815
0	11217	27.657387077517	7393.8033022515
0	11232	27.667189558868	102.01498622571
0	11235	27.667337748859	6748.094073371
0	11238	27.667947628765	1639.667072422
0	11245	27.671227521086	304.88805793939
0	11252	27.675224043646	250.21752911111
0	11267	27.689809969991	68.559238292246
0	11274	27.694671955232	205.67730061524
0	11277	27.694888009432	4628.4682269542
0	11280	27.695675767721	1269.4249162004
0	11287	27.711339606404	63.84131120332
0	11290	27.711616379795	3613.0640896762
0	11293	27.711869625614	3948.7325158959
0	11300	27.714602796618	365.87538742966
0	11307	27.750777909717	27.64331371303
0	11310	27.750927891086	6667.4948139725
0	11313	27.751294580431	2727.1040558869
0	11320	27.755252599982	252.65160697535
0	11331	27.769154586182	71.932167505676
0	11342	28.03721394225	3.7305170566265
0	11349	28.040230821083	331.46840007678
0	11352	28.04054386191	3194.4714993997
0	11355	28.041969002996	701.68491374194
0	11358	28.042010999332	23811.601088247
0	11373	28.085724331073	22.876316221444
0	11376	28.085769815529	21985.53281587
0	11379	28.085802929017	30199.174427049
0	11382	28.086209747519	2458.0986240395
0	11385	28.086539637332	3031.3151864438
0	11392	28.105575754703	52.531720650316
0	11395	28.106319129383	1345.2166544064
0	11398	28.10637108131	19248.564158169
0	11413	28.126442927901	49.821026454456
0	11416	28.126899085078	2192.2268253602
0	11419	28.127290224032	2556.6361769224
0	11422	28.127682124319	2551.6694760675
0	11425	28.127751457683	14423.070543642
0	11428	28.128308819513	1794.1666367788
0	11431	28.128481675	5785.1793851357
0	11458	28.176578610924	20.791345244532
0	11465	28.187299466809	93.2761349212
0	11472	28.189857268384	390.96074135461
0	11479	28.195893752297	165.65934978248
0	11486	28.236996847579	24.329067996928
0	11489	28.237109960256	8840.742050513
0	11500	28.245881112337	114.01010845157
0	11515	28.251372543384	182.10189501447
0	11518	28.252944331583	636.21803537921
0	11525	28.254585163945	609.44678027992
0	11528	28.25473797286	6544.1208060407
0	11535	28.259866285594	194.99590837551
0	11538	28.261277083409	708.8187898845
0	11549	28.269253357714	125.37181668553
0	11556	28.272360440521	321.84530059742
0	11567	28.287538675066	65.883815211527
0	11570	28.287577043257	26063.256409456
0	11577	28.306503923666	52.834908785311
0	11580	28.306900579163	2521.0793939911
0	11595	28.406495647148	10.040657838103
0	11598	28.406887849191	2549.7062492354
0	11601	28.406960407756	13781.97046758
0	11604	28.407048205532	11389.810147355
0	11607	28.407152295866	9607.0399774104
0	11610	28.413257289784	163.80032698339
0	11613	28.418478444168	191.5285253898
0	11616	28.418861245152	2612.3234834736
0	11619	28.419083308807	4503.2132790933
0	11622	28.419142707014	16835.525018457
0	11625	28.419436935527	3398.7188726335
0	11628	28.41985659136	2382.9050411412
0	11643	28.442254582903	44.646860325855
0	11650	28.462712502215	48.880826282927
0	11653	28.462894388873	5497.9293753366
0	11660	28.478315054536	64.848043648296
0	11663	28.478622622111	3251.3180233645
0	11666	28.478958361774	2978.4982538688
0	11677	28.493752827459	67.592843249073
0	11688	28.500321812984	152.23050746485
0	11691	28.501028724507	1414.6041866119
0	11694	28.501405003049	2657.6057052969
0	11697	28.50150115167	10400.565183353
0	11700	28.501850453013	2862.8575871236
0	11707	28.518654466693	1.0792921789432
0	11714	28.524427458733	173.22040166887
0	11717	28.524492980269	15262.157468348
0	11720	28.524724206956	4324.7603162692
0	11725	28.525283492159	1787.9965259871
0	11728	28.525306630027	42.632693273211
0	11733	28.526315628922	968.86385200873
0	11738	28.526382849194	929.17876828707
0	11741	28.526562501384	5566.3112150205
0	11746	28.527353333894	1264.4902521774
0	11755	28.533417770026	164.89579216167
0	11772	28.575468971982	23.780533099775
0	11779	28.576514027608	19.920954177347
0	11786	28.584201171786	130.0873220073
0	11801	28.594718241663	95.083517718839
0	11808	28.609141231332	29.698036879726
0	11811	28.609196764794	18007.161159879
0	11826	28.635490656906	38.031646123003
0	11829	28.63558827876	10243.607952785
0	11832	28.635844729004	3899.3918835967
0	11839	28.701681954728	15.188975370745
0	11846	28.705689657157	249.51952339673
0	11853	28.709675408656	250.89371483669
0	11860	28.715950967612	159.34835558256
0	11879	29.16468929891	2.2284702024617
0	11882	29.164826701322	7277.8926180714
0	11885	29.165520489618	1441.3618761882
0	11892	29.175125611018	104.11112555017
0	11899	29.179541774376	226.44089879249
0	11902	29.179853010896	3212.9905577919
0	11917	29.239502914116	16.764486545968
0	11920	29.242521301944	331.30268772075
0	11927	29.259455334714	59.052678920734
0	11934	29.273467485916	71.36662926227
0	11953	29.295485962495	45.416402738496
0	11956	29.307113898891	85.999782415735
0	11963	29.321107355052	71.461973975165
0	11970	29.414268631503	10.734073620449
0	11973	29.414523648105	3921.3133268869
0	11980	29.417663952806	318.44043658616
0	11983	29.418782437758	894.06656585935
0	11990	29.421968238157	313.89286042964
0	11993	29.42312987253	860.85606903783
0	11996	29.423302962576	5777.3397321762
0	12003	29.424834492405	652.94190231537
0	12006	29.425094471421	3846.4642854099
0	12009	29.426385199142	774.7567389544
0	12012	29.427215751526	1204.0179755838
0	12015	29.428788898202	635.66863488068
0	12026	29.458593621865	33.551728622179
0	12033	29.480881678238	44.867079626172
0	12036	29.482233884457	739.53217042555
0	12047	29.488654791911	155.74122616843
0	12050	29.488827350403	5795.1364109047
0	12053	29.489585984246	1318.1589632826
0	12056	29.489676259595	11077.221091663
0	12063	29.494370491484	213.02739695142
0	12066	29.494460626934	11094.414018014
0	12069	29.494770644483	3225.6238500873
0	12072	29.495151735258	2624.0467248256
0	12075	29.495589060098	2286.629773877
0	12094	29.520680818309	39.853723744301
0	12097	29.520776243826	10479.377334681
0	12100	29.520834706073	17105.055849119
0	12103	29.52098525525	6642.3478356179
0	12114	29.533549860111	79.588654881138
0	12117	29.53392883729	2638.6813122592
0	12124	29.536865056311	340.57404875043
0	12127	29.537031869876	5994.7163169854
0	12138	29.546081708726	110.4992051875
0	12149	29.624574136622	12.74008241056
0	12152	29.624974146041	2499.9411326362
0	12159	29.65095679647	38.487220644891
0	12162	29.652320334754	733.38608217619
0	12169	29.682559254445	33.06996447686
0	12172	29.682709327144	6663.4371652102
0	12175	29.683640886529	1073.4688696202
0	12198	29.895313753698	0.76887855658931
0	12201	29.895407074165	10715.762920475
0	12208	29.907869268312	80.242691471849
0	12227	30.019537345825	2.977107892402
0	12230	30.020057015321	1924.2999785387
0	12233	30.020404972056	2873.9205177333
0	12240	30.022508438039	475.40583402912
0	12243	30.022551736344	23095.592310138
0	12246	30.022590975913	25484.479709754
0	12261	30.040536544298	55.724063933013
0	12272	30.059829900082	6.5806517671863
0	12279	30.061185308777	48.429047704864
0	12290	30.064690314917	205.74375520356
0	12297	30.067874945526	314.00816068712
0	12300	30.068656316996	1279.8010144906
0	12303	30.069171805185	1939.9086561807
0	12306	30.069809064035	1569.2210473028
0	12309	30.070013199922	4898.6976993418
0	12316	30.0774631177	134.22966934656
0	12323	30.087520549917	37.971932540277
0	12330	30.090597995139	324.94485778373
0	12337	30.091863242447	790.35931843295
0	12346	30.09481656346	338.60186400265
0	12351	30.095387618039	55.789560717863
0	12354	30.095521756527	7454.9818990058
0	12357	30.112873654207	57.630584184035
0	12364	30.11740404671	220.73142654589
0	12379	30.13829916815	22.997702348543
0	12382	30.138369868782	14144.14513296
0	12393	30.149696523255	88.287322826326
0	12400	30.157170579021	133.79616520244
0	12403	30.157248192871	12884.298356543
0	12414	30.16355491416	158.56099456054
0	12417	30.16389192253	2967.2853525863
0	12420	30.163972225795	12452.793793627
0	12427	30.174888475026	91.606556321579
0	12434	30.188760544133	72.087299471093
0	12437	30.189101354979	2934.178919881
0	12440	30.189320445392	4564.3256877698
0	12443	30.18936962988	20331.613495702
0	12454	30.195861848485	154.03054962287
0	12465	30.204652725022	113.75429922046
0	12468	30.205061605298	2445.7036905346
0	12487	30.237446294124	30.878789830988
0	12490	30.237658765593	4706.5142661578
0	12493	30.23775328764	10579.542357986
0	12496	30.237847968425	10561.805122338
0	12503	30.3185213091	4.9722236078414
0	12510	30.418318456597	10.02032648308
0	12513	30.418399099832	12400.296193475
0	12520	30.420394259942	501.21290766985
0	12527	30.427334178214	144.09391592328
0	12534	30.439819090172	80.096680165952
0	12537	30.440121989325	3301.4288422259
0	12548	30.444542434665	226.22155079063
0	12551	30.44512911237	1704.5133835451
0	12554	30.445274155083	6894.5207885073
0	12557	30.445328048743	18555.058238761
0	12560	30.445410311185	12156.215834196
0	12563	30.445910526252	1999.1401018714
0	12566	30.447431248249	657.58238650637
0	12569	30.44747887382	20997.123583043
0	12572	30.44750633437	36415.876593877
0	12575	30.447810806712	3284.3705718268
0	12578	30.448042176377	4322.0877723966
0	12585	30.462860202507	67.485371616091
0	12588	30.46312094136	3835.2550396469
0	12591	30.463208873553	11372.399184904
0	12602	30.470534519922	136.50672577258
0	12617	30.480938410801	96.117886243739
0	12624	30.482305154334	4.0906958667693
0	12627	30.482452628476	6780.8497573764
0	12630	30.482640020739	5336.3996143213
0	12633	30.482740782376	9924.4120061289
0	12636	30.483050512966	3228.61232402
0	12639	30.48327206179	4513.6777616116
0	12642	30.483550403108	3592.7113056208
0	12649	30.484828690421	257.05093147006
0	12656	30.48949404742	214.34586896873
0	12659	30.489782500467	3466.7687181685
0	12662	30.49123968513	686.25482095127
0	12669	30.500870904646	103.8290113042
0	12672	30.50142443278	1806.5929057185
0	12675	30.501755792492	3017.868388297
0	12682	30.506787760349	198.72940933216
0	12685	30.507128264413	2936.8225102887
0	12700	30.533912329353	37.335632296298
0	12703	30.534713635699	1247.9621620269
0	12706	30.534975894487	3813.0276114904
0	12709	30.535096697087	8277.967527189
0	12712	30.535235957265	7180.8036896233
0	12719	30.562605457584	36.537020710816
0	12734	30.582466619048	50.349522701005
0	12745	30.595484350869	76.818297822576
0	12748	30.595611613276	7857.7800276872
0	12755	30.600594336694	200.69345940164
0	12762	30.602942288491	425.9031217241
0	12769	30.605628360486	372.29084025352
0	12772	30.605709025677	12396.920996567
0	12775	30.605759294738	19892.951650718
0	12778	30.60604340058	3519.8149850083
0	12781	30.606104326364	16413.412094951
0	12784	30.606454383034	2856.6803197894
0	12787	30.606818396485	2747.1512309582
0	12794	30.621267917843	69.206444644365
0	12805	30.657216251463	27.817701108784
0	12812	30.658548847033	750.41522162647
0	12819	30.660477424308	518.516946644
0	12822	30.660887515653	2438.4811144941
0	12825	30.661536705221	1540.3821153207
0	12836	30.670640344145	109.84618440475
0	12847	30.694688291658	41.583590427391
0	12850	30.695300159758	1634.3391655816
0	12861	30.736158049939	24.475076798386
0	12880	30.750656586485	68.972478486175
0	12883	30.750800262764	6960.0911643877
0	12886	30.751250192847	2222.5675450112
0	12893	30.753086235792	544.64956972997
0	12896	30.753239027332	6544.8649840168
0	12911	30.832620203972	2.864756554491
0	12922	30.840595391933	125.38889426684
0	12925	30.840828724381	4285.7305470005
0	12944	30.963837552441	4.7483713358507
0	12947	30.964188783795	2847.1262278025
0	12950	30.965006433454	1223.0176934496
0	12953	30.965093593261	11473.178227666
0	12968	30.994823846381	33.635771480441
0	12971	30.994850048632	38164.659975206
0	12978	30.997584682431	365.67967541602
0	12981	30.997672024277	11449.265681882
0	12984	30.99780355036	7603.0546731936
0	12987	30.998554359123	1331.8970812279
0	12990	30.999130414625	1735.9438396615
0	13009	31.506515715477	1.9708887867284
0	13012	31.506632875267	8535.3515911901
0	13015	31.50681680601	5436.8290134075
0	13018	31.506943514846	7892.1094342623
0	13025	31.525670473501	53.398953798246
0	13028	31.526338037394	1497.9839540243
0	13031	31.526600555507	3809.2609632616
0	13034	31.526735345768	7418.9336275564
0	13037	31.526784695607	20263.490626585
0	13056	31.557757903649	32.285967880498
0	13071	31.586442226967	34.862248236216
0	13074	31.586847853195	2465.3238153032
0	13085	31.594372599026	132.89485418634
0	13092	31.596782867311	414.89157295201
0	13103	31.604298661979	133.05312933278
0	13106	31.605419323701	892.32993361756
0	13109	31.605513216808	10650.409087006
0	13112	31.606114148536	1664.0825461624
0	13115	31.606319765866	4863.4032938761
0	13118	31.606511070727	5227.2587051513
0	13121	31.607106593106	1679.1980205332
0	13124	31.607317362738	4744.5165155481
0	13137	32.996007639133	0.46399860037378
0	13144	33.008478174393	80.189019889753
0	13147	33.009076473334	1671.4052649476
0	13150	33.009159356107	12065.233386919
0	13153	33.009775921172	1621.8888431507
0	13156	33.009929102475	6528.2118666924
0	13167	33.018569484368	115.73562515913
0	13174	33.020822398298	443.86959780572
0	13177	33.021394844409	1746.889324225
0	13184	33.023913583803	397.02400430237
0	13187	33.023985199171	13963.483368542
0	13198	33.033380147394	106.44018213447
0	13201	33.033466091445	11635.476666093
0	13208	33.042527674059	110.35599879154
0	13215	33.044340639233	551.58257551835
0	13238	33.314434261322	3.7024198952409
0	13241	33.315243730574	1235.3773753966
0	13244	33.31554678688	3299.7168519569
0	13247	33.315918765319	2688.3278576262
0	13250	33.318399814443	403.05530040767
0	13257	33.327498974365	109.90025547108
0	13264	33.330368866428	348.44516032239
0	13267	33.330452767308	11918.826119583
0	13270	33.33061057963	6336.6408105953
0	13277	33.334020142252	293.29275067352
0	13280	33.33412862813	9217.7896186635
0	13283	33.334253070191	8035.8681941148
0	13286	33.334343159171	11100.136775885
0	13289	33.334511084448	5955.0296290415
0	13292	33.334909289953	2511.2661363132
0	13295	33.335290642208	2622.2475070981
0	13302	33.34391358542	115.9696840643
0	13309	33.348575898163	214.48582605305
0	13312	33.348776115428	4994.5742691071
0	13323	33.375890814409	36.880365173913
0	13326	33.375991577767	9924.2425009298
0	13329	33.376090287797	10130.682768509
0	13336	33.382055375687	167.64212337532
0	13343	33.387992618889	168.42833718908
0	13346	33.388187520654	5130.7898622673
0	13353	33.45648704159	14.641391129772
0	13356	33.456562620911	13231.13236225
0	13359	33.457111009873	1823.5232094259
0	13366	33.467615106949	95.20094804577
0	13369	33.468189928496	1739.6703467694
0	13372	33.469474186031	778.66002164433
0	13375	33.469601781784	7837.2514483299
0	13378	33.470793916859	838.83111987121
0	13381	33.471292642564	2005.1102038143
0	13388	33.47350987604	451.01249409424
0	13395	33.475664325921	464.15561058949
0	13398	33.476018790086	2821.159650934
0	13401	33.476247700927	4368.5130666223
0	13404	33.477224674399	1023.5692459007
0	13407	33.477318739966	10630.882605534
0	13418	33.495218900427	55.865420993222
0	13421	33.495377898852	6289.3704764686
0	13424	33.495716567442	2952.739136511
0	13431	33.503852826317	122.9066104414
0	13434	33.503977693169	8008.5305586145
0	13437	33.504222405517	4086.4304894006
0	13444	33.506594070063	421.64479023249
0	13451	33.510635224446	247.45404536058
0	13454	33.510772471886	7286.1104003106
0	13461	33.553211062091	23.563459463886
0	13464	33.553244320998	30067.13359522
0	13467	33.553752666384	1967.1664729145
0	13470	33.55383432921	12245.473846325
0	13473	33.553991604358	6358.2836367765
0	13480	33.559091959573	196.06477546094
0	13483	33.560164618337	932.26292793334
0	13490	33.562417639827	443.84840732256
0	13497	33.577453279427	66.508643902319
0	13500	33.577643468013	5257.9390857872
0	13503	33.5781159394	2116.5302863092
0	13508	33.590349713832	0.50427820779037
0	13511	33.590795150364	2244.9887428631
0	13514	33.59084211585	21292.231491014
0	13529	33.602745770686	40.601171335202
0	13546	33.622521392602	50.567309804347
0	13549	33.622594156999	13742.984773171
0	13552	33.622665064966	14102.787631748
0	13555	33.623332362671	1498.5815064357
0	13558	33.623410741784	12758.501107304
0	13561	33.626394400743	335.15894870745
0	13564	33.628382770513	502.92456417701
0	13567	33.628541616853	6295.3921380877
0	13570	33.628584155129	23508.239967224
0	13573	33.628808820552	4451.0632150102
0	13576	33.629109935475	3320.9911685446
0	13579	33.629173919427	26.087997607293
0	13582	33.629206101608	31073.096009248
0	13585	33.629317555614	4816.4884428673
0	13588	33.629337133448	7631.7328673703
0	13591	33.629428069849	10996.696471416
0	13594	33.6294967054	5581.9212644775
0	13603	33.632911099542	287.10636662379
0	13606	33.633298604879	2580.6096188038
0	13609	33.633711226279	2423.529172263
0	13618	33.641938735339	80.372736997318
0	13621	33.642003958148	15332.059678693
0	13624	33.642207991026	4901.1708789404
0	13627	33.64301006763	107.54027972447
0	13630	33.64346183759	2213.5159230153
0	13635	33.651285376535	110.16387912671
0	13638	33.651318218223	30449.104808498
0	13649	33.659933173526	60.711529646747
0	13664	33.67481626215	67.190354452867
0	13671	33.696220153753	46.720475815708
0	13674	33.69672111118	1996.1776113163
0	13677	33.696922308328	4970.2493794793
0	13680	33.696976094084	18592.283057247
0	13683	33.697101762155	7957.4707564342
0	13698	33.710200987103	76.340394486674
0	13705	33.713141557516	340.07007469676
0	13708	33.713251102941	9128.6331674737
0	13711	33.713403770387	6550.1849032046
0	13718	33.715693718734	436.69107266549
0	13725	33.721870634534	161.8930923423
0	13728	33.722016002647	6879.087712998
0	13731	33.722218751988	4932.1985219178
0	13734	33.72275243564	1873.7692193727
0	13737	33.725271867185	396.91493185619
0	13740	33.732758361936	133.5738597648
0	13747	33.735683965507	341.80980974746
0	13754	33.764382357108	8.8445373560676
0	13761	33.765990481679	32.996204325322
0	13764	33.766505928297	1940.0651106804
0	13767	33.766552337523	21547.439726747
0	13770	33.767348014516	1256.7913975112
0	13773	33.767837184014	2044.2811828795
0	13776	33.767907808924	14159.310079121
0	13787	33.778963353009	68.582421035549
0	13794	33.785275334249	158.4288612366
0	13797	33.785352873323	12896.723528063
0	13812	33.798611497566	32.569376652422
0	13823	33.80798948864	106.63264574568
0	13826	33.808125691619	7341.9833203501
0	13837	33.81422109311	34.640168579093
0	13840	33.814310434213	11193.0563472
0	13843	33.814362813689	19091.447192026
0	13846	33.814441658771	12683.099245175
0	13857	33.820215070915	173.20779723638
0	13872	33.829310315477	47.204047931319
0	13875	33.830755947192	691.739112821
0	13886	33.842506530974	85.102154799478
0	13889	33.842746798813	4162.0218676042
0	13892	33.842970430545	4471.637325601
0	13895	33.855500079978	79.81069265723
0	13902	33.85796328358	405.97537255469
0	13905	33.857992222705	34555.294951039
0	13916	33.861981296712	250.68474494211
0	13919	33.862234221647	3953.7422437214
0	13930	33.887372578463	39.779847478476
0	13933	33.887637524279	3774.3566405291
0	13936	33.888010366426	2682.1002079467
0	13939	33.888149115154	7207.273280372
0	13942	33.888402436802	3947.5505070139
0	13945	33.889703564337	768.56416692465
0	13948	33.890291617105	1700.5276642112
0	13967	33.933039070299	8.8633624535545
0	13970	33.933193266091	6485.2612839136
0	13981	33.955031635947	15.446396493034
0	13984	33.955127677301	10412.181402607
0	13987	33.955867593294	1351.5047781918
0	13994	34.023103922667	11.122152123922
0	13997	34.023224346566	8303.999524214
0	14000	34.023331437454	9337.8626200205
0	14011	34.06316803582	25.102544921443
0	14034	34.116128182744	6.2398372764752
0	14057	34.135089092257	52.740086086819
0	14060	34.135617309682	1893.1598100915
0	14063	34.135691918114	13403.310767877
0	14066	34.135751422335	16805.530484972
0	14073	34.13842510095	13.287788970678
0	14076	34.13916334619	1354.5634239376
0	14079	34.139254950473	10916.520136946
0	14082	34.139321999102	14914.5480663
0	14089	34.14095723828	192.09284587951
0	14092	34.141025563259	14635.935709545
0	14101	34.148921285976	104.17440515384
0	14104	34.149174648259	3946.9173870682
0	14107	34.149572672803	2512.4078780428
0	14112	34.150245530981	108.46024955314
0	14115	34.150357085807	8964.2020507477
0	14118	34.150562434708	4869.7606616361
0	14121	34.150776052278	4681.262875521
0	14124	34.150838294256	16066.327455082
0	14131	34.159068800152	121.49921434185
0	14134	34.159194644695	7946.3119827135
0	14137	34.159312574683	8479.6074091011
0	14140	34.159482597436	5881.5657454976
0	14143	34.159951690931	2131.7711941412
0	14146	34.160358795429	2456.3717790217
0	14149	34.160507630817	6718.83221751
0	14152	34.160955779852	2231.400542902
0	14163	34.167956563522	54.395449542489
0	14166	34.168504877382	1823.7729755728
0	14169	34.169152103713	1545.054569172
0	14172	34.169259981266	9269.7690315612
0	14187	34.193274126589	41.642123279825
0	14190	34.194434139367	862.05946948629
0	14193	34.194550173412	8618.160299419
0	14196	34.19498509668	2299.2561529267
0	14207	34.258633628914	10.237735675007
0	14226	34.278189855756	51.134608331109
0	14233	34.285958326921	10.992244612518
0	14236	34.28622903321	3694.0405178396
0	14239	34.287068891647	1190.6768521276
0	14242	34.287262400643	5167.7184041614
0	14249	34.289654561211	418.03213938773
0	14252	34.28993549662	3559.5370607057
0	14255	34.290009814687	13455.67828076
0	14258	34.290106626431	10329.325334745
0	14261	34.290998979464	1120.6327126363
0	14264	34.291158727573	6259.85500711
0	14267	34.29127293499	8755.9987456857
0	14270	34.29147067365	5057.1800173016
0	14273	34.292651517789	846.85181301476
0	14284	34.301956476932	42.075816860742
0	14291	34.30365612828	588.35595969533
0	14294	34.304187971928	1880.2518442413
0	14297	34.304295267765	9320.0260882442
0	14304	34.3048905094	1679.9900094354
0	14311	34.306664141567	563.81476306412
0	14314	34.306749510824	11713.818711108
0	14321	34.307668039473	66.593317749842
0	14324	34.307711559793	22977.772222263
0	14327	34.307907849544	5094.5094937738
0	14330	34.3083915573	2067.3639973637
0	14333	34.309206312387	1227.3626958036
0	14336	34.309263813389	17391.001290725
0	14343	34.311644706056	420.01053380539
0	14346	34.311896145442	3977.1016621875
0	14349	34.312146196855	3999.1775611362
0	14352	34.312244768691	10144.885604038
0	14359	34.324314908496	82.84908179653
0	14362	34.324360263212	22048.423806689
0	14369	34.325983863129	615.91528154778
0	14372	34.326107357212	8097.553953253
0	14375	34.326221171005	8786.2812901772
0	14386	34.336029916606	101.94983545073
0	14389	34.337041477897	988.57084478928
0	14396	34.338080924922	31.916848593943
0	14407	34.346811652118	102.35232017159
0	14410	34.347049271907	4208.4037032791
0	14413	34.348400353359	740.14782640951
0	14416	34.348483917818	11966.80995685
0	14419	34.348526365839	23558.224304497
0	14422	34.348862382446	2976.0433834748
0	14429	34.350151126157	775.94947037534
0	14432	34.350239441751	11323.028637502
0	14435	34.3511069042	1152.7876522526
0	14438	34.351184524957	12883.151861041
0	14449	34.413159900394	13.319308018167
0	14452	34.418184029242	199.03948132184
0	14467	34.480629942981	16.01385807532
0	14470	34.481035235039	2467.3565155328
0	14485	34.496775733577	6.8685465934282
0	14488	34.496886690272	9012.5251117114
0	14495	34.498081061207	837.26082969358
0	14502	34.5038135281	174.44496735273
0	14505	34.503874375865	16434.457370784
0	14512	34.505914200996	490.23810168951
0	14515	34.50831934264	415.77592841347
0	14518	34.508468437624	6707.133755754
0	14525	34.514375552825	29.993715309454
0	14528	34.51456204156	5362.2541865598
0	14531	34.516655790972	477.61207442909
0	14534	34.516832858295	5647.56942759
0	14537	34.516906979632	13491.391824192
0	14544	34.534401971695	38.56011283546
0	14547	34.534545216635	6981.049382966
0	14550	34.534866102624	3116.3716531107
0	14553	34.535132553269	3753.0402675512
0	14556	34.53547831112	2892.1975223637
0	14563	34.542061128047	151.91065027168
0	14566	34.542978201399	1090.4253163819
0	14573	34.562977909612	21.705661258284
0	14576	34.563204498877	4413.2717408303
0	14579	34.563281018301	13068.577202045
0	14606	34.589416903033	38.261570643355
0	14609	34.589599871765	5465.4147135916
0	14612	34.589695658184	10439.893363171
0	14623	34.594900181309	192.14056234979
0	14630	34.607525497348	79.205938046301
0	14637	34.615286869756	128.84319259945
0	14644	34.622983847563	12.499117849135
0	14647	34.625225961674	446.00762962684
0	14650	34.62560421497	2643.7310938858
0	14653	34.625902167525	3356.2390495359
0	14662	34.645885327143	32.681386102322
0	14675	34.682401830482	27.384878303285
0	14678	34.682546667148	6904.3290460718
0	14685	34.68438394236	544.28427133213
0	14688	34.685408024871	976.48381771847
0	14699	34.694036309802	115.8978879345
0	14706	34.694457186777	14.586823997877
0	14713	34.696424516866	418.72416134852
0	14724	34.701474424531	198.02342267183
0	14735	34.706716288326	190.77183977078
0	14742	34.709865306264	317.55932156903
0	14745	34.712070203657	453.53584396932
0	14756	34.762060061146	20.004057827531
0	14759	34.762165015515	9527.9501894771
0	14762	34.763352111426	842.39191689036
0	14765	34.763422945715	14117.456589421
0	14772	34.774788228801	87.987249629692
0	14783	34.787883082366	76.36587878102
0	14786	34.787992390807	9148.424319765
0	14793	34.820017732779	31.225271563823
0	14800	34.824887373452	205.35396082601
0	14807	34.913438548527	11.292904912363
0	14810	34.9141194728	1468.592088213
0	14821	34.924521128582	96.138539955388
0	14828	34.932482424462	4.2012351703788
0	14833	34.932945380869	2160.030587934
0	14836	34.933084288126	7199.0479230326
0	14839	34.933276138728	5212.38916936
0	14844	34.93343917326	112.13220342649
0	14847	34.933499381067	16609.141734726
0	14854	34.936157391633	347.07123358198
0	14857	34.936417400569	3846.0216613478
0	14864	34.93975068633	159.96659224415
0	14867	34.940066679618	3164.6241802452
0	14872	34.940920844403	222.05228639696
0	14875	34.944563913488	274.49383381649
0	14880	34.950402828087	96.747836295036
0	14887	34.955771812857	186.25495188358
0	14894	34.95700791098	808.99726437009
0	14901	34.966744549445	45.084370075711
0	14910	34.975976279326	52.719347376596
0	14913	34.981512060506	180.64297837726
0	14916	34.981590791705	12701.4450777
0	14919	34.981789787096	5025.2420167862
0	14922	34.987405266466	48.401030757237
0	14925	34.988787777643	723.32145781994
0	14938	35.013953522239	31.090916386234
0	14947	35.016691560709	35.837434574184
0	14950	35.017065568173	2673.74343096
0	14953	35.017186740694	8252.696170281
0	14956	35.01725661675	14311.053846542
0	14963	35.019005517678	197.94158804663
0	14966	35.019206630553	4972.3320796841
0	14969	35.019257204148	19773.164237187
0	14974	35.019641817791	419.2518713562
0	14981	35.041835826344	45.0572053089
0	14988	35.043789519842	511.85101502549
0	14991	35.052813404667	110.8170172152
0	14994	35.054126718814	761.43244347462
0	15005	35.061337919643	23.763854493368
0	15008	35.062180691978	1186.5600690369
0	15011	35.062331821457	6616.8427669892
0	15014	35.062690318988	2789.4194897538
0	15021	35.068176093945	182.28965056687
0	15026	35.070595534074	60.720822002833
0	15029	35.071615683984	980.24808922446
0	15032	35.071775436592	6259.6787152295
0	15037	35.072519860253	230.21496302835
0	15048	35.076151821252	228.49911003938
0	15055	35.078818379767	375.01520944497
0	15062	35.083804272511	200.56588686217
0	15065	35.087480350412	272.02905567588
0	15076	35.128518619368	17.857538556281
0	15093	35.140525273089	83.287152543674
0	15106	35.14630759591	172.94088050018
0	15109	35.146780110731	2116.3357328849
0	15116	35.148969614056	16.263001713431
0	15119	35.149217156289	4039.7147100148
0	15126	35.152705872605	168.75467176425
0	15137	35.165136248971	62.817650476444
0	15152	35.180290493397	65.988113421499
0	15155	35.180334298659	22828.307704221
0	15158	35.180428546301	10610.345031232
0	15161	35.180599900554	5835.8633211164
0	15164	35.180704283656	9580.0946785429
0	15167	35.180930418108	4422.1479352469
0	15174	35.188999627877	123.92787257084
0	15177	35.189125968309	7915.1225317957
0	15180	35.190054572435	1076.8851569802
0	15191	35.203873443335	72.364812381307
0	15200	35.210922246413	141.86805744667
0	15209	35.213598262447	16.422413418076
0	15220	35.216309762845	185.61428306007
0	15223	35.216382738994	13703.107298797
0	15226	35.216943938877	1781.8963087703
0	15233	35.218670483402	579.19155024398
0	15240	35.243775477507	39.832712002144
0	15247	35.257382198707	73.493091046798
0	15250	35.257746978789	2741.3777487993
0	15257	35.266328860416	116.52456226544
0	15260	35.266474316336	6874.9350318639
0	15263	35.266622898152	6730.2986793485
0	15270	35.268081562461	685.55869491697
0	15273	35.270318072448	447.1252110711
0	15276	35.270366273358	20746.496279842
0	15283	35.27202816949	601.722322319
0	15290	35.397344852271	7.9797835197056
0	15293	35.3976068133	3817.3617038281
0	15296	35.397762757763	6412.5393153587
0	15299	35.39831983969	1795.0681067419
0	15306	35.418752123912	48.942153952776
0	15309	35.418853976437	9818.1169293545
0	15312	35.419106755489	3956.0240142051
0	15315	35.419208362888	9841.8029576763
0	15326	35.422059805693	350.69965220642
0	15335	35.456213168216	4.121758293582
0	15346	35.462172263391	167.81071129645
0	15353	35.468215218698	165.48194537226
0	15356	35.468246126011	32354.802243728
0	15359	35.468346341176	9978.5296965784
0	15368	35.471383036285	329.30536787715
0	15375	35.475441136018	246.42075498247
0	15382	35.486288202938	92.190820557784
0	15393	35.500675228047	69.507072686933
0	15400	35.502740762939	484.13609659807
0	15403	35.503134300094	2541.0561297573
0	15406	35.503459543392	3074.6213869717
0	15409	35.504093291448	1577.9141103985
0	15412	35.504327111562	4276.792029962
0	15419	35.506796461484	404.96488208932
0	15422	35.507310572124	1945.1066019563
0	15427	35.507625606007	11.686912251511
0	15430	35.508138825046	1948.4857809416
0	15433	35.508262454114	8088.712599532
0	15438	35.508542659101	3568.8158540876
0	15441	35.508711067134	5937.9590283559
0	15444	35.508905933955	5131.7099281873
0	15451	35.509334430382	494.10574878312
0	15462	35.519388507554	95.396420598029
0	15465	35.519724833406	2973.3069701701
0	15468	35.519785963179	16358.640821388
0	15479	35.548615355975	25.45764858907
0	15486	35.55055160454	516.46261646164
0	15497	35.621370925311	14.120440426612
0	15504	35.623288923847	521.37683174957
0	15507	35.623379605751	11027.5584862
0	15510	35.632070504618	115.06289686526
0	15513	35.632423489469	2832.9827672973
0	15516	35.63281212825	2573.0834103249
0	15523	35.642677635826	101.3632590413
0	15526	35.646131594263	289.52288171382
0	15529	35.646208812078	12950.379391077
0	15532	35.646384210105	5701.3184076466
0	15539	35.648506457026	471.19870459221
0	15542	35.649547002932	961.03400554824
0	15549	35.651938685682	418.11565518044
0	15556	35.671011962808	52.42937505673
0	15571	35.682871840049	84.317904787662
0	15574	35.683101884075	4346.9939967057
0	15581	35.759585558423	13.074685657099
0	15584	35.760003218011	2394.2943697009
0	15595	35.814315990566	18.411875383223
0	15598	35.81444522894	7737.6399056212
0	15601	35.81454215386	10317.264125676
0	15616	35.826896850948	80.94087559389
0	15623	35.828868873149	507.09368256245
0	15626	35.829139169938	3699.6369942079
0	15637	35.916944710804	11.388802917644
0	15640	35.91702314217	12750.001064625
0	15647	35.91966393772	378.67376745617
0	15650	35.919825123921	6204.0050190152
0	15665	35.931543043377	85.339381598835
0	15672	35.935264603424	268.70451836619
0	15675	35.936637411114	728.43414797596
0	15678	35.936744855744	9307.1193972188
0	15681	35.936878086823	7505.7562207389
0	15688	35.949053817334	82.130595704017
0	15691	35.949501009815	2236.1735549843
0	15694	35.949605222262	9595.7827379296
0	15697	35.94981383502	4793.5706789323
0	15700	35.955722321419	169.24808359875
0	15703	35.955913399832	5233.453556054
0	15718	36.059691793551	9.6359171130331
0	15729	36.17776938346	1.5197951333986
0	15736	36.1799784303	452.68392769797
0	15743	36.873407826649	1.2289299452449
0	15746	36.873526993128	8391.6216069454
0	15749	36.87358545521	17105.10412544
0	15752	36.87364297011	17386.798899068
0	15755	36.873832910655	5264.805363173
0	15762	36.876850191968	331.42418497456
0	15765	36.877293874349	2253.8645725488
0	15768	36.877479006031	5401.5606037653
0	15775	36.883399368874	168.90856633599
0	15782	36.887161212705	265.8270903644
0	15785	36.88720395142	23397.989387374
0	15788	36.88741461938	4746.8063012525
0	15807	36.925252116424	26.428809464779
0	15814	36.931050723163	1.3314297564994
0	15817	36.932145809718	913.16982701883
0	15824	36.944875519072	50.95956180168
0	15827	36.945350486912	2105.405704942
0	15830	37.013832561347	14.602361395304
0	15837	37.019793121273	167.76947340769
0	15844	37.045645448194	38.681237594427
0	15847	37.046509624845	1157.1708155304
0	15850	37.047489318925	1020.7267966751
0	15853	37.048401837157	1095.8685152057
0	15860	37.058600814908	98.049042209348
0	15863	37.058651569439	19702.674427235
0	15874	37.302922236795	4.0938194128016
0	15881	37.310299353743	135.5543103151
0	15896	37.326233444607	62.758522499662
0	15899	37.327125910251	1120.4913115961
0	15906	37.333798606961	149.8644466339
0	15909	37.334108669724	3225.1534828773
0	15912	37.334236866872	7800.4855459031
0	15919	37.347082944963	77.844770436247
0	15926	37.368190124544	47.377244134511
0	15929	37.368417409092	4399.7711626221
0	15936	37.37847320324	99.445154234675
0	15939	37.378916276251	2256.9643719509
0	15942	37.379005327003	11229.551436017
0	15945	37.379490383542	2061.6153367639
0	15952	37.399426862021	50.159309782485
0	15959	37.451126044033	19.342665804033
0	15962	37.452509050923	723.06219674726
0	15973	37.481208478144	34.843900970549
0	15976	37.481277468524	14494.774488849
0	15979	37.481405215858	7827.9520103331
0	15986	37.486685724837	189.37568404426
0	15989	37.487331787465	1547.8375573211
0	15992	37.487388275729	17702.792211848
0	15995	37.488244121949	1168.4342077248
0	15998	37.488393100616	6712.3704362317
0	16001	37.488907700243	1943.2583071033
0	16016	37.519513051897	32.674024180647
0	16019	37.519731916384	4569.0372783045
0	16022	37.519884114033	6570.4037254872
0	16025	37.519981117101	10308.952290045
0	16028	37.520156544459	5700.3651619721
0	16031	37.520274021651	8512.2906240387
0	16042	37.530292172326	99.818822100118
0	16045	37.53505090763	210.1398661866
0	16048	37.535227705877	5656.1646790536
0	16059	37.542620321936	135.27011169241
0	16062	37.542856144884	4240.4694220004
0	16065	37.542959947423	9633.6757234811
0	16068	37.543772592224	1230.5499263263
0	16079	37.60959277823	15.192907536129
0	16082	37.614327404784	211.20989978717
0	16085	37.614702328383	2667.2100733782
0	16088	37.61482906232	7890.5463183078
0	16091	37.615113158915	3519.929550722
0	16102	37.624145646692	110.71147004996
0	16109	37.673941990369	20.081795693403
0	16112	37.674028788985	11520.921024824
0	16115	37.674552537821	1909.3121192159
0	16122	37.693365580902	53.154611707127
0	16125	37.69410167548	1358.5210785237
0	16132	37.73418031914	24.950944160769
0	16135	37.734374507961	5149.6270220416
0	16142	37.736231052211	538.63515507373
0	16149	37.739800447595	280.15949269239
0	16152	37.739902795112	9770.632735526
0	16159	37.744595139869	213.11307071123
0	16162	37.745061468277	2144.4114980874
0	16177	37.760396882481	65.208541921167
0	16184	37.768792529527	119.10934255823
0	16187	37.772621813895	261.14540052357
0	16190	37.772912577638	3439.2183484858
0	16201	37.808971163823	27.73264583557
0	16204	37.81258109115	277.01388682277
0	16207	37.812651861075	14130.296167475
0	16210	37.814419058428	565.86775568807
0	16213	37.814840067106	2375.2479515398
0	16216	37.815251466847	2430.72588614
0	16219	37.827272462455	83.18778515604
0	16226	37.837023115322	102.557235258
0	16229	37.837118653854	10466.981008249
0	16232	37.837225312541	9375.7013903612
0	16235	37.837347525971	8182.4067944088
0	16238	37.839191947001	542.17555738887
0	16241	37.839594635049	2483.3118463948
0	16244	37.861256149702	46.164823467758
0	16251	37.891339169249	33.241343956103
0	16254	37.891983215442	1552.6836597573
0	16261	37.912824328395	47.982082447092
0	16272	37.92650776299	73.081066968772
0	16275	37.926542020503	29190.677093226
0	16282	37.93522828167	115.12433033894
0	16285	37.935360449912	7566.1141047787
0	16288	37.935455686897	10500.122405177
0	16291	37.9358549654	2504.5175046652
0	16294	37.936335163376	2082.4744167601
0	16305	37.947400912222	90.368940585659
0	16308	37.948133102682	1365.7648585042
0	16315	37.955470823804	136.28209404168
0	16318	37.955741646193	3692.4569039231
0	16321	37.955785150565	22986.195502374
0	16324	37.955962657099	5633.5954371122
0	16331	37.961078286493	195.47936783163
0	16338	37.965555766527	223.3399127202
0	16341	37.965891702406	2976.7585498065
0	16344	37.965966078203	13445.234072584
0	16347	37.966064316067	10179.374421252
0	16350	37.966457393833	2544.0258556878
0	16353	37.966526737384	14420.951704651
0	16356	37.968738183787	452.19273623065
0	16359	37.968948216645	4761.1597991015
0	16366	37.979222691728	97.32857317982
0	16369	37.981215682841	501.75838390705
0	16372	37.981696238343	2080.9250874002
0	16375	37.981912293666	4628.4441693668
0	16382	38.017924562799	27.768314079483
0	16389	38.031858979341	71.764755774731
0	16396	38.035723579359	258.75899066976
0	16399	38.036135893418	2425.335683254
0	16402	38.036266861396	7635.4542176714
0	16417	38.081000916516	22.354333791504
0	16420	38.083729269565	366.5214809229
0	16423	38.084001449949	3674.0340552977
0	16430	38.09296999142	111.50085030364
0	16441	38.104530935681	86.498124843783
0	16444	38.104810296703	3579.5974429103
0	16447	38.105186199137	2660.2647643404
0	16450	38.105494547932	3243.080615898
0	16453	38.105551467965	17568.50703161
0	16460	38.107561762417	497.43956613178
0	16463	38.108399307335	1193.965814261
0	16466	38.108586566293	5340.198464631
0	16477	38.117196891573	116.13963090602
0	16480	38.117269282171	13813.948601447
0	16483	38.117815952631	1829.2555994337
0	16486	38.11811325379	3363.592672708
0	16493	38.143614084226	39.214409213446
0	16504	38.153539143832	100.75506240743
0	16511	38.161257419646	129.56261529112
0	16530	38.216218358506	18.194740132574
0	16537	38.221753205114	180.67348037335
0	16548	38.318169024213	10.371741995711
0	16555	38.319471545909	767.74153019559
0	16558	38.319695799646	4459.2344965025
0	16565	38.334456047174	67.749541334115
0	16572	38.338118220079	273.0619296087
0	16575	38.338176790085	17073.585411618
0	16578	38.338262166779	11712.798342836
0	16585	38.339650725412	720.17124537225
0	16588	38.340390308522	1352.1130843564
0	16591	38.340416397782	38329.948798854
0	16598	38.342528653076	473.42762157613
0	16609	38.34691865176	227.79050108708
0	16612	38.347021085943	9762.3661429505
0	16615	38.347332938464	3206.6439507795
0	16626	38.352449514728	195.44319255748
0	16633	38.405229672852	18.946513908705
0	16636	38.405543947747	3181.9277196799
0	16639	38.405685200964	7079.484780867
0	16650	38.41672551396	90.577142184493
0	16653	38.418484699542	568.44485893473
0	16660	38.420019822415	651.413653974
0	16663	38.42045067784	2320.964161006
0	16670	38.424978888533	220.8377807035
0	16673	38.425264238172	3504.4726305051
0	16676	38.425465755106	4962.3621208925
0	16699	38.517887652744	10.819946631228
0	16706	38.519710087888	548.716371769
0	16709	38.520251799203	1846.001684495
0	16712	38.521240017242	1011.9224306125
0	16715	38.521283818396	22830.448713749
0	16718	38.522835054826	644.64705744436
0	16725	38.531389159512	116.90294153597
0	16736	38.607492125444	13.140092344016
0	16739	38.60828374242	1263.2371845447
0	16746	38.609465705942	846.04979881943
0	16749	38.609732056511	3754.45039879
0	16760	38.63385523919	41.453899898148
0	16775	38.687318297261	18.704504307853
0	16778	38.687814965043	2013.4182973841
0	16781	38.688388800545	1742.6596934395
0	16784	38.688597392135	4794.0571333676
0	16787	38.691546305055	339.10801272491
0	16790	38.691964712129	2390.0169527248
0	16793	38.692071787604	9339.206760465
0	16796	38.692218937723	6795.7811165617
0	16803	38.710581794073	54.457758691773
0	16810	38.718720964272	122.8626476103
0	16817	38.739749190087	47.555129414992
0	16824	38.741792017067	489.5177172567
0	16839	38.755461719038	73.154484429981
0	16846	38.759554116376	244.35554942686
0	16857	38.773831149793	70.042562120032
0	16864	38.774996901116	857.8158825731
0	16867	38.775388041359	2556.6277515454
0	16870	38.775675513902	3478.5930842794
0	16881	38.785446005164	102.34899895866
0	16884	38.786033907102	1700.9639454531
0	16899	38.822186115451	27.660827530821
0	16910	39.164859082374	2.9182342831984
0	16925	39.176499449048	85.907946717315
0	16928	39.176808935522	3231.1589811192
0	16931	39.176897585533	11280.314449143
0	16942	39.232432452841	18.006705489255
0	16945	39.232515960913	11974.89028366
0	16956	39.356997404099	8.0333258870224
0	16963	39.389967106891	30.330876996642
0	16970	39.430201541591	24.854332053036
0	16977	39.437735789237	132.72725386601
0	16980	39.438597008686	1161.1442370015
0	16983	39.438718008537	8264.4729868304
0	16990	39.444154013883	183.95861231738
0	16993	39.444803706517	1539.1893761258
0	17000	39.445985126665	846.43892496067
0	17007	39.447973841246	502.83736517744
0	17010	39.449984044833	497.46205133998
0	17013	39.45031269457	3042.7530815276
0	17028	40.001509293664	1.8142347061714
0	17043	40.033333872971	31.422253546649
0	17046	40.033499167654	6049.8013720139
0	17053	40.038755597143	190.2432063614
0	17056	40.038914854045	6279.1627078116
0	17059	40.039020944443	9425.9237296857
0	17062	40.039315697322	3392.6725445148
0	17073	40.089123646102	20.077116695108
0	17092	40.165070028825	13.167184059935
0	17099	40.189277992756	41.308719843201
0	17102	40.189597701692	3127.8450096246
0	17109	40.191104789497	663.53134613812
0	17116	40.1928558539	571.08122253342
0	17123	40.202960743768	98.961989003639
0	17130	40.206363696456	293.86244584779
0	17133	40.206504815125	7086.2346356172
0	17136	40.207586277838	924.67358141824
0	17143	40.212993846635	184.92598754449
0	17146	40.213174214366	5544.2289729752
0	17149	40.213999657668	1211.4702458389
0	17156	40.224218595515	97.85752834318
0	17167	40.245548914653	46.88162392369
0	17170	40.247476035199	518.90889860296
0	17181	40.25100172851	283.63215736322
0	17192	40.362805961721	8.9442051636164
0	17195	40.362923855413	8482.2180308002
0	17198	40.363047652816	8077.7138757911
0	17205	40.36853759141	182.15139985225
0	17224	40.388547751502	49.974612666882
0	17227	40.388835126129	3479.7783312999
0	17246	40.426680704905	26.423165726142
0	17257	40.543548506281	8.5566767597748
0	17268	40.600457962106	17.571772309246
0	17275	40.60376148258	302.70737168738
0	17278	40.603847821244	11582.296432106
0	17293	40.667891002238	15.614464873219
0	17304	40.681115910922	75.614888835477
0	17307	40.68179039859	1482.6067954144
0	17314	40.687337898485	180.26138241144
0	17325	40.69438499292	141.90245486614
0	17348	40.785056257143	11.028852509882
0	17351	40.785266265851	4761.707309775
0	17358	40.804874744845	50.998346190237
0	17361	40.805173455812	3347.7177287568
0	17368	40.81554545074	96.413467895209
0	17371	40.816373894798	1207.0821081319
0	17374	40.832342622459	62.62239680136
0	17377	40.832824057828	2077.1220072117
0	17380	40.832913518166	11178.137958745
0	17387	40.837751853161	206.6826710084
0	17394	40.999158958759	6.1955141088435
0	17397	40.999257349006	10163.609000799
0	17412	41.028211265687	34.537641695164
0	17415	41.028651557131	2271.2228766362
0	17418	41.031148798984	400.44179092973
0	17421	41.031536916311	2576.5404696812
0	17428	41.050847991812	51.783754868972
0	17431	41.051406191209	1791.474525724
0	17434	41.05152365251	8513.4422272404
0	17437	41.052098090525	1740.8318632951
0	17448	41.138113865203	11.625774501753
0	17451	41.138216630104	9730.9488966471
0	17454	41.138270516419	18557.58739487
0	17469	41.186463842677	20.749760965794
0	17476	41.363197137471	5.6582434066292
0	17483	41.462615902457	10.058463310632
0	17494	41.480826071831	54.914371166024
0	17497	41.480898552824	13796.720472635
0	17508	41.599978120483	8.3977463107998
0	17511	41.600270060578	3425.3602609809
0	17530	42.666065994304	0.93826591785167
0	17545	42.854702895798	5.3011897040294
0	17568	42.925211080801	14.182750555236
0	17571	42.925536087909	3076.8557837203
0	17574	42.925623430087	11449.2221616
0	17577	42.927940804886	431.52277328273
0	17580	42.928267126145	3064.4647641544
0	17583	42.929571389277	766.7164512015
0	17586	42.929606852058	28198.578109258
[...]
0	274581	494.292949852938	278.08241830295
0	274584	494.294032160524	923.9517609738
0	274587	494.294122398776	11081.774943956
0	274618	494.345802557235	14.67050573533
0	274621	494.345933250008	7651.5324990464
0	274632	494.357825837661	15.697739674702
0	274635	494.35794751591	8218.395713436
0	274640	494.358303311491	2810.6026420828
0	274643	494.358419642	8596.1972366166
0	274646	494.358544135856	79.296570602024
0	274651	494.358797984877	2643.105132385
0	274654	494.358840710998	23404.886205326
0	274657	494.358932867805	10851.07039353
0	274660	494.359234796813	3312.0368480792
0	274677	494.378589535271	49.886758517353
0	274680	494.37875422957	6071.8555898526
0	274685	494.379812566362	48.596131743957
0	274688	494.380146761371	2992.2649144051
0	274699	494.417276085185	26.932890160066
0	274702	494.417584268234	3244.8247989136
0	274705	494.417734327794	6664.020606218
0	274708	494.417950550164	4624.8683704651
0	274711	494.420348272795	417.06241875981
0	274714	494.4207756274	2339.9771250856
0	274721	494.428559585142	128.46935108657
0	274724	494.429003188579	2254.2656719767
0	274727	494.429143197772	7142.3881430414
0	274730	494.429259479741	8599.7855781063
0	274741	494.434967144172	17.789506327509
0	274744	494.435691206074	1381.0973857868
0	274747	494.436115771738	2355.3482648093
0	274750	494.436209856355	10628.73009304
0	274757	494.440915788223	212.49776410915
0	274772	494.452135531818	89.12859652565
0	274775	494.452292846845	6356.6718263984
0	274778	494.452637952462	2897.6636448082
0	274781	494.452801620033	6109.9458731504
0	274808	494.496820107716	14.80152020449
0	274811	494.496871808997	19341.880523231
0	274814	494.496973803295	9804.4696577058
0	274817	494.49757860759	1653.4274115894
0	274820	494.49764068973	16107.692163962
0	274823	494.497697837008	17498.646217235
0	274834	494.502678211765	20.049485445462
0	274837	494.502934896022	3895.8368997285
0	274840	494.503237651196	3302.9988778986
0	274851	494.510793383217	132.34985005035
0	274862	494.574309268953	15.744092810993
0	274869	494.59599305588	10.17343479648
0	274888	494.609581320037	28.351058962194
0	274891	494.6096817902	9953.2037187996
0	274902	494.70594239041	10.388466286502
0	274905	494.70677231492	1204.9288675665
0	274908	494.711671757004	204.10487211711
0	274911	494.712004093661	3008.9969882558
0	274918	494.764529700536	19.038333100649
0	274925	494.786006489523	46.561895291019
0	274932	494.790511321035	221.98388493248
0	274935	494.790852791059	2928.51474424
0	274942	494.86299645967	13.861230226481
0	274945	494.863050024531	18668.955381029
0	274948	494.863206677068	6383.5544521057
0	274951	494.864936173446	578.2030033254
0	274954	494.877847536334	77.451157455222
0	274957	494.878335794286	2048.0977235574
0	274964	494.88105174079	368.19576472777
0	274971	494.919425153435	26.059709863472
0	274990	494.945565286726	38.255351985688
0	275005	494.955630234065	99.354717547817
0	275028	495.039640755469	11.903270962825
0	275035	495.045028041305	185.62222804619
0	275038	495.045135309348	9322.4409808614
0	275041	495.045346463394	4735.8789421444
0	275044	495.053592572621	121.26931289313
0	275047	495.053648354455	17926.983182374
0	275050	495.055752510654	475.24988899363
0	275065	495.081374359608	39.029189571578
0	275068	495.081440150326	15199.712518717
0	275075	495.095645431959	70.396351570878
0	275078	495.097460860668	550.83407849754
0	275085	495.102442567188	200.73442624236
0	275100	495.119275126693	59.408671610693
0	275111	495.12849809528	108.42495998626
0	275114	495.130165271761	599.81652296353
0	275121	495.137608243474	134.35493759212
0	275124	495.137707227763	10102.613355136
0	275127	495.137803967094	10337.057220294
0	275130	495.137940684519	7314.3566008503
0	275137	495.142852472715	203.59184070974
0	275140	495.14293824751	11658.43649058
0	275143	495.143273107526	2986.3224996083
0	275146	495.143381612659	9216.1538569793
0	275149	495.144459974582	927.33244625144
0	275152	495.144545887411	11639.705171389
0	275163	495.155470223147	91.538746534913
0	275166	495.155725629014	3915.3368391494
0	275169	495.155798191443	13781.236568032
0	275176	495.186052376148	33.053278736503
0	275183	495.188250605256	454.91163608047
0	275198	495.210549204057	44.845867174181
0	275205	495.211907628171	736.14712054501
0	275208	495.212168819983	3828.6039380132
0	275215	495.213640629998	679.43551804137
0	275226	495.23358832398	50.131107931692
0	275233	495.237031313999	290.44522188027
0	275236	495.237243352435	4716.1260895171
0	275243	495.246450630925	108.60972665116
0	275254	495.273418000585	37.081851608363
0	275257	495.27354209292	8058.5154594762
0	275260	495.273788256356	4062.3417362439
0	275263	495.274243236356	2197.8988087388
0	275266	495.274677378264	2303.3943085725
0	275277	495.293075000638	1.43455157248
0	275284	495.294636873526	640.25696820982
0	275287	495.294698909328	16119.7238975
0	275290	495.294744968291	21711.300795027
0	275293	495.316122264766	46.778599958581
0	275296	495.316282403402	6244.589219556
0	275299	495.316354001812	13966.790603311
0	275310	495.32527244639	19.764772279971
0	275313	495.325460532126	5316.7242836533
0	275320	495.330468874778	70.847254694308
0	275323	495.330573249949	9580.8226268678
0	275326	495.330918203799	2898.9385101804
0	275333	495.333398735877	125.97308300055
0	275340	495.333828614833	343.59407943339
0	275343	495.33617143523	426.83596287642
0	275350	495.347722002302	69.816476935358
0	275361	495.352159341739	225.36026693421
0	275364	495.352311472307	6573.3009029454
0	275371	495.362729644713	37.653140760114
0	275374	495.362948269206	4574.0529173005
0	275377	495.367486660269	220.34240463601
0	275392	495.388655777653	27.514626857769
0	275399	495.39106556873	414.97373342627
0	275402	495.39114473257	12632.029977323
0	275405	495.391200174578	18036.864754249
0	275412	495.40181842115	94.17750786057
0	275415	495.402083730724	3769.1817333362
0	275426	495.410082677316	125.01646166761
0	275429	495.411238972047	864.83140776329
0	275432	495.411287528191	20594.716087834
0	275439	495.42678924252	16.862672113795
0	275442	495.427316899392	1895.1709966548
0	275445	495.427391463957	13411.196055392
0	275452	495.433271299134	170.07279454221
0	275455	495.433844858076	1743.4999731902
0	275458	495.434462494423	1619.0756986004
0	275461	495.434945096326	2072.101236617
0	275464	495.438772056938	261.30396975196
0	275467	495.438874962734	9717.625623342
0	275478	495.453788491485	23.528878465236
0	275481	495.454817892468	971.43874594493
0	275488	495.457087547699	54.90708770456
0	275495	495.485277442984	35.473703959876
0	275498	495.48655897782	780.31433239947
0	275501	495.486656478783	10256.308955636
0	275504	495.487063262338	2458.3098006506
0	275507	495.487097877365	28889.187346293
0	275510	495.487188031331	11092.135425301
0	275513	495.487300113946	8921.990265841
0	275516	495.487636081679	2976.4763153609
0	275519	495.487882432689	4059.2486306429
0	275522	495.488011052108	7774.8757362992
0	275525	495.494451349744	155.27232692014
0	275528	495.495555974989	905.28439805846
0	275535	495.504462140882	112.28176209765
0	275538	495.504786947925	3078.7509740052
0	275541	495.50488841356	9855.5535576158
0	275548	495.542877423895	26.323402246641
0	275551	495.544700366418	548.56364771957
0	275554	495.545084454802	2603.567412234
0	275565	495.569472992238	41.002868770798
0	275568	495.571210069356	575.67968033069
0	275571	495.581173686464	100.36515746847
0	275574	495.581250101453	13086.437792983
0	275577	495.583708009756	406.85000281721
0	275584	495.586219425608	398.18176635448
0	275587	495.586305792791	11578.471883238
0	275594	495.598127088749	84.593093985034
0	275601	495.604505380263	156.78179616047
0	275612	495.612410949144	126.49311074923
0	275615	495.612462813846	19280.936001522
0	275618	495.612521613602	17006.873293828
0	275629	495.616087218879	6.2008071978391
0	275632	495.616241251695	6492.1230810972
0	275635	495.616297010578	17934.362135626
0	275644	495.617709989678	192.73853424499
0	275647	495.617822451531	8891.9039952152
0	275650	495.617951472711	7750.6654333808
0	275655	495.620692106521	227.52631864446
0	275658	495.621227395292	1868.150527671
0	275665	495.634308486981	61.135851781586
0	275676	495.638796416578	222.81989464997
0	275679	495.639104851011	3242.1801621611
0	275682	495.639384079016	3581.3026705541
0	275693	495.646918831418	132.71836241554
0	275696	495.648455445366	650.78154555447
0	275699	495.64853135185	13174.105126513
0	275706	495.648733595715	36.35543930538
0	275709	495.648896713099	6130.5544233103
0	275716	495.781368502651	7.5487770141994
0	275719	495.786793171872	184.34303719917
0	275730	495.788562102532	7.1412885750426
0	275733	495.78878475031	4491.3989664878
0	275740	495.802318614639	64.410401365528
0	275743	495.803339092476	979.93308991384
0	275748	495.803483222299	6938.1893294908
0	275757	495.812674287273	41.859329527768
0	275764	495.813206977644	102.84092560126
0	275767	495.813285735225	12697.190382219
0	275778	495.831496903924	53.12757617825
0	275781	495.833243341215	572.59427816467
0	275794	495.864400130192	19.563960419479
0	275797	495.864572072724	31.919581541714
0	275818	495.881378910869	58.897044435861
0	275821	495.881475078442	10398.515516244
0	275840	495.971310992131	11.131405681049
0	275843	495.975007766762	270.50607619256
0	275846	495.975439242045	2317.6298606194
0	275853	495.980280442231	206.5603490002
0	275868	496.054115021062	13.543789587923
0	275871	496.054184654842	14360.846129565
0	275874	496.054252051585	14837.51225189
0	275877	496.054353348635	9871.9557973307
0	275900	496.071649906955	57.814969978374
0	275903	496.071883722727	4276.871450742
0	275906	496.072282338679	2508.6803350007
0	275913	496.08520783112	77.366491417222
0	275916	496.085410155476	4942.5586704944
0	275931	496.107793230347	44.676614172239
0	275938	496.117061834938	107.89110595688
0	275945	496.123427799821	157.08537800302
0	275948	496.123535562708	9279.6326067248
0	275951	496.123854270595	3137.6694483874
0	275954	496.123983275112	7751.6665559858
0	275957	496.124364849814	2620.7188127477
0	275964	496.150638266663	38.061284748278
0	275967	496.150810643963	5801.2278878948
0	275970	496.15103470805	4463.0088355034
0	275977	496.157119922416	164.3327481752
0	275992	496.1739657129	59.362010999115
0	275995	496.17727623049	302.06756883597
0	275998	496.177794036969	1931.2234214049
0	276001	496.177915037778	8264.4075544983
0	276004	496.178306658338	2553.4920842767
0	276011	496.191621203854	3.0576445702359
0	276014	496.191984174979	2755.0400875552
0	276017	496.192048114968	15639.664873887
0	276024	496.193770528719	64.666863816233
0	276027	496.194697551676	1078.7219371958
0	276030	496.194997001648	3339.455980981
0	276037	496.197358225492	188.31999738618
0	276040	496.197625448594	3742.1914217581
0	276051	496.201155961354	283.2449754409
0	276058	496.203560572069	116.77372297281
0	276061	496.203665043815	9571.9659935616
0	276064	496.206656200087	334.31887506545
0	276067	496.206922562473	3754.2838349556
0	276070	496.206951731069	34283.446484706
0	276073	496.207190014746	4196.6785664467
0	276076	496.207421887974	4312.7014214854
0	276107	496.248800442698	24.167107978278
0	276110	496.24926245507	2164.444202373
0	276113	496.250973989225	584.27113305256
0	276116	496.251414321635	2271.0115750962
0	276127	496.263773348551	80.912518986863
0	276134	496.340464468328	7.1783125217661
0	276141	496.342879980967	413.99079593059
0	276148	496.392191524943	20.279227121477
0	276155	496.405338594432	76.062578115731
0	276158	496.405970262072	1583.1110170532
0	276161	496.408696266137	366.83731064062
0	276164	496.409077882329	2620.4338834763
0	276173	496.439652975402	5.6857068547636
0	276176	496.439753755117	9922.6317518362
0	276183	496.442044643183	436.51194261361
0	276186	496.445055996919	332.07656345558
0	276195	496.45700511869	20.86496272115
0	276198	496.457289344811	3518.3254673486
0	276205	496.460913363046	275.93680140519
0	276208	496.46107729279	6100.1742307363
0	276213	496.463105842301	55.402136629782
0	276216	496.46345166358	421.16421083499
0	276221	496.463650185642	5037.2235202755
0	276226	496.464605170946	1047.1365326895
0	276229	496.464850365204	4078.3989321642
0	276238	496.470294030777	139.11710903781
0	276241	496.470356518862	16003.050821609
0	276248	496.479342497423	111.28448540264
0	276255	496.4887684308	106.09028941792
0	276258	496.489420226208	1534.2237575261
0	276261	496.489553654052	7494.6875406306
0	276280	496.559222598411	14.353597706993
0	276287	496.562416587699	313.0880882278
0	276298	496.651387110403	5.3608740676438
0	276301	496.651488850188	9828.996591648
0	276304	496.651557886074	14485.220049178
0	276307	496.651666126004	9238.7347257154
0	276310	496.652061233941	2530.9539656248
0	276313	496.652225426213	6090.4206258867
0	276320	496.655145599079	342.44548041767
0	276323	496.658274805095	319.56988286705
0	276326	496.659528119993	797.88407653637
0	276333	496.860521181322	4.9752961290695
0	276344	496.894984491777	29.01636513723
0	276347	496.895092322172	9273.8230255022
0	276358	497.024625863618	7.7200081834934
0	276361	497.025088667048	2160.7445735655
0	276376	497.085244531825	16.623483075292
0	276383	497.253803802531	5.9326312685832
0	276386	497.253883000569	12626.575420972
0	276397	497.308394887334	18.344622784953
0	276404	497.318811136435	96.003848439454
0	276411	497.321606307986	357.7597946152
0	276418	497.324902983761	303.33586565697
0	276425	497.326590728871	592.50653079955
0	276436	497.336275065331	103.25952677609
0	276439	497.339593911178	301.30956546353
0	276450	497.354287260261	68.058003274215
0	276453	497.354488074725	4979.7209826479
0	276456	497.3545266892	25897.024367158
0	276463	497.380580697522	38.381810109257
0	276466	497.380637249566	17682.826813475
0	276473	497.392843821519	81.923082405968
0	276480	497.40777650592	66.967195793211
0	276487	497.418368501183	94.410918355789
0	276490	497.418647438188	3585.0388513349
0	276493	497.418911001854	3794.1496837428
0	276496	497.418968030552	17535.031222351
0	276499	497.419017348876	20276.439239906
0	276502	497.419405722368	2574.841024423
0	276521	497.466332915807	21.309605938823
0	276528	497.47450892479	122.30906327026
0	276539	497.523770244473	20.299902772298
0	276542	497.524122982486	2834.9652238927
0	276545	497.524158454111	28191.54746928
0	276560	497.605107430303	12.353460748264
0	276563	497.605359191445	3972.0188431621
0	276570	497.61439702017	110.64604457859
0	276577	497.620387411358	166.93400624707
0	276580	497.620702181833	3176.9180384533
0	276583	497.621045689434	2911.1437333231
0	276590	497.623052939897	498.19393166582
0	276593	497.623196250198	6977.8654641162
0	276600	497.63457685	87.868830940199
0	276607	497.63875397574	239.3990658275
0	276610	497.638913501934	6268.5630173061
0	276621	497.823468436606	5.418440865736
0	276624	497.823559837324	10940.833090611
0	276635	497.857171172478	29.751867797522
0	276638	497.857395802702	4451.7606855968
0	276641	497.857448989188	18801.768554516
0	276644	497.85794665545	2009.3787269831
0	276651	497.866453958358	117.54606728058
0	276658	498.003941363716	7.2733934966343
0	276661	498.004003993942	15966.731462856
0	276664	498.004117530108	8807.7661526813
0	276667	498.004888631305	1296.8466446305
0	276670	498.005062234165	5760.2737650751
0	276673	498.005114386442	19174.618205069
0	276676	498.005183571563	14453.974865492
0	276679	498.005341925613	6314.9632106031
0	276682	498.005454275455	8900.7690816334
0	276689	498.015485639646	99.687338726789
0	276692	498.015745179199	3852.9772762612
0	276695	498.015924510621	5576.2676102574
0	276698	498.016183928929	3854.7780521335
0	276701	498.016574566119	2559.920114109
0	276704	498.016814978141	4159.5257661449
0	276707	498.016845124077	33171.96719319
0	276718	498.035981900112	52.255405935204
0	276721	498.036332799244	2849.8218114715
0	276724	498.03662013043	3480.3044316951
0	276743	498.071847569996	28.386962331635
0	276746	498.071877638434	33257.464188861
0	276761	498.134966804438	15.850582014931
0	276764	498.135100125499	7500.6903822945
0	276767	498.13741395366	432.18421179895
0	276770	498.137521483544	9299.74034009
0	276773	498.138013032625	2034.3848430468
0	276784	498.145241950629	138.33328852903
0	276787	498.145275666899	29659.27132509
0	276790	498.145575075592	3339.9163864624
0	276797	498.14773265835	463.48164226477
0	276800	498.147810093425	12914.044443038
0	276803	498.148398839281	1698.525755738
0	276806	498.148632063384	4287.7214967786
0	276809	498.148670536104	25992.443476832
0	276812	498.14937934027	1410.826922256
0	276819	498.152796194607	292.66685125302
0	276822	498.152980887965	5414.379871744
0	276829	498.176702118784	42.156328549319
0	276832	498.176998707953	3371.6672910601
0	276835	498.177212932543	4667.9981975925
0	276842	498.192405950708	65.819706732379
0	276845	498.193164641812	1318.059477339
0	276848	498.193355463358	5240.4983659445
0	276851	498.193405952878	19806.090452038
0	276854	498.193786759868	2626.0022170286
0	276857	498.193901760838	8695.578828596
0	276860	498.193965881019	15595.713929753
0	276863	498.195545049769	633.24454717078
0	276866	498.195858090116	3194.4763976383
0	276877	498.20168288406	171.67989281923
0	276880	498.202265389531	1716.7220734996
0	276887	498.253705263067	19.440172209991
0	276898	498.277179614099	42.599686723472
0	276905	498.284075456973	145.01490510615
0	276916	498.36485584643	12.379242124505
0	276923	498.377595914532	78.492516052015
0	276934	498.382306109141	212.30545296138
0	276941	498.563103873624	5.5310418403654
0	276944	498.599446771923	27.515692110541
0	276947	498.599565114472	8450.0461452795
0	276958	498.602296353563	366.13418550401
0	276961	498.602871370205	1739.0801012677
0	276964	498.603030726396	6275.2503917466
0	276971	498.626836823114	42.006046259734
0	276974	498.627100040469	3799.1415877574
0	276977	498.627182861781	12074.186895276
0	276980	498.628057624384	1143.1672965562
0	276999	498.708143821078	12.486546262409
0	277002	498.70883794163	1440.6719367675
0	277009	498.72519944692	61.119070786915
0	277012	498.725292223502	10778.58203485
0	277015	498.726773582358	675.05587585997
0	277018	498.726937103209	6115.4280563278
0	277029	498.734274609985	136.28607516532
0	277032	498.734503801374	4363.1656684973
0	277039	498.742750385712	121.26232619632
0	277042	498.742806525082	17812.811223211
0	277053	498.751225593842	118.77798228126
0	277056	498.751575733352	2856.0044537676
0	277059	498.751638640309	15896.492974537
0	277062	498.752205408506	1764.3897545649
0	277065	498.752345254004	7150.7486068661
0	277080	498.771504840232	52.193193950013
0	277095	499.371136201324	1.667691293162
0	277098	499.371214281641	12807.325052228
0	277105	499.381673486349	0.35470339736647
0	277128	499.442640189948	16.402395749939
0	277131	499.442754451597	8751.8428864964
0	277150	499.453333726771	94.524434193529
0	277157	499.456112768083	359.83632041811
0	277160	499.456294016971	5517.2752287451
0	277163	499.456350922893	17572.863506192
0	277170	499.458877298399	395.82397692863
0	277173	499.459013249079	7355.6086663193
0	277176	499.460087825782	930.59899512822
0	277179	499.460339276656	3976.9199609145
0	277182	499.460474761794	7380.8833556342
0	277185	499.460634374528	6265.1642819426
0	277196	499.486254706212	39.031500931914
0	277203	499.489203590377	339.11131941664
0	277206	499.489387659391	5432.7449159911
0	277217	499.656926661584	5.9687594345825
0	277220	499.657090009488	6121.9028558824
0	277223	499.657873712176	1275.9940922903
0	277226	499.660241132266	422.40074088414
0	277233	499.667615048373	135.61315120614
0	277236	499.667673816312	17016.080825976
0	277239	499.667821560826	6768.440823461
0	277246	499.674256008492	155.41349497394
0	277257	499.691779433199	57.066470551304
0	277260	499.691977665211	5044.5939074664
0	277271	499.703532080856	86.546999062885
0	277274	499.70411185313	1724.8151469899
0	277277	499.704160788057	20435.301763094
0	277288	499.960378475739	3.9029311717196
0	277291	499.960670447836	3424.9848196967
0	277298	499.963128094183	406.89336821007
0	277309	499.985002677111	45.715157326267
0	277312	499.985097309069	10567.254668872
0	277323	499.991907259796	146.84394059346
0	277326	499.992161207101	3937.8248176329
0	277329	499.992283933601	8148.1994516262
0	277336	499.996771816292	222.82222349648

