version 2
run Sim_1-1-20211203-17:56:12-3844
attr configname Sim_1
attr datetime 20211203-17:56:12
attr experiment Sim_1
attr inifile omnetpp.ini
attr iterationvars ""
attr iterationvarsf ""
attr measurement ""
attr network Network
attr processid 3844
attr repetition 1
attr replication #1
attr resultdir results
attr runnumber 1
attr seedset 1
param **.server.p1 0.2
param **.server.p2 0.5
param **.clients.num_clients 35
param **.processor.service_rate 100Hz
param **.disk.service_rate 10Hz
param **.webServer.serv_rate_w 1Hz

vector 0 Network.clients throughput1:vector ETV
attr source service_rate
vector 1 Network.clients throughput:vector ETV
attr source throughput_s
0	1353	10.09160133786	6.691249329924
0	1384	10.569655564482	2.0918129038752
0	1393	10.710194338956	7.1154740301581
0	1432	11.014539261818	3.2857456289929
0	1461	11.460454582226	2.242578252492
0	1464	11.464539507893	244.80249618212
0	1467	11.472406414278	127.11477054141
0	1472	11.535616943393	15.820149174526
0	1505	11.96975785625	2.3033995884405
0	1570	12.795687952914	1.210756217795
0	1577	12.849082540219	18.728490104958
0	1592	12.969472912808	8.306312028902
0	1605	13.123528656569	6.4911568733937
0	1658	13.6552585075	1.8806542424675
0	1695	14.005259775195	2.8571325086497
0	1732	14.247417746056	4.1295357590108
0	1737	14.308726324942	16.310931001344
0	1748	14.395199361424	11.564298429698
0	1805	15.529658023588	0.8814776891848
0	1828	15.676273377493	6.8205680603408
0	1835	15.696473532759	49.504569981358
0	1838	15.722028274613	39.13168075472
0	1877	16.208931036995	2.0537981651775
0	1884	16.23536602814	37.828648949222
0	1915	16.932925807409	1.4335688921858
0	1922	17.024682084945	10.898436890137
0	1933	17.074266794689	20.167507386105
0	1944	17.324491018332	3.9964156365082
0	1951	17.401764976217	12.940970378251
0	1954	17.410784302135	110.87303076655
0	1957	17.428135911531	57.631541673047
0	1984	17.781817632777	2.8274008520346
0	1991	17.913392385231	7.600242305982
0	2064	18.943667385699	0.97061464128097
0	2077	19.305493477961	2.7637586713229
0	2092	19.614803615285	3.2330010540602
0	2101	19.699766583142	11.769833672513
0	2128	20.025844024095	3.0667561579157
0	2157	20.39091261106	2.7392113035896
0	2162	20.410465183896	51.144164422127
0	2187	20.846520834873	2.2932852670513
0	2194	20.916166705593	14.358353046089
0	2201	20.937787569697	46.25162043431
0	2228	21.337639222006	2.5009275170563
0	2259	21.724423098993	2.5854231768653
0	2306	22.320317477636	1.6781497457272
0	2371	23.352090247625	0.96920565175476
0	2436	23.993443852013	1.5592022764949
0	2445	24.020999364417	36.290379410794
0	2448	24.051299737109	33.002894392254
0	2455	24.073960384348	44.129366185047
0	2492	24.58822218555	1.9445348607707
0	2529	24.874681517641	3.4908969196449
0	2554	25.434260639235	1.787057381897
0	2559	25.464547986912	33.01708722284
0	2592	26.311781227415	1.1803125186711
0	2629	26.788317576063	2.0984758095309
0	2650	27.065157353213	3.6121976772802
0	2653	27.070227010774	197.2519816117
0	2668	27.209523673526	7.1789228847526
0	2683	27.451503739935	4.1325718057692
0	2732	28.096535958108	1.5503101578901
0	2763	28.856300151741	1.3161978524129
0	2766	28.867924766571	86.024355612994
0	2769	28.930767198674	15.912815060388
0	2804	29.325280875866	2.5347663663212
0	2815	29.460317480829	7.4053994490901
0	2818	29.464433466731	242.95515674971
0	2829	29.518932208044	18.349047627664
0	2846	29.685983993801	5.9861676753018
0	2877	30.137561061697	2.2144614310448
0	2898	30.237098636599	10.046457340201
0	2909	30.350029185179	8.8549999320299
0	2936	30.702058845855	2.8406697267489
0	2939	30.712072204724	99.866589531297
0	2972	31.146412334852	2.3023430961935
0	2987	31.383892324101	4.2108811069192
0	2998	31.524817035811	7.0959875515505
0	3015	31.597553219393	13.74831549792
0	3026	31.72850469921	7.6364161855785
0	3031	31.738880450135	96.378566450601
0	3060	31.968500362481	4.3550230020694
0	3065	31.980002515192	86.940247197697
0	3182	33.702769499079	0.58046155362448
0	3193	33.760371513551	17.360503954008
0	3204	34.054899471459	3.3952634143899
0	3211	34.101417643898	21.496975215682
0	3238	34.397030410698	3.3828038309203
0	3247	34.444755583635	20.95330280563
0	3258	34.673910700432	4.363856299512
0	3261	34.677764642234	259.47459805466
0	3312	35.344486557212	1.4998757016004
0	3321	35.414483990905	14.286238041038
0	3326	35.456805927401	23.628408404576
0	3331	35.466671613933	101.36142038939
0	3370	35.847139235355	2.6283445520607
0	3379	35.90196112755	18.240888082502
0	3408	36.306796580793	2.4701393911757
0	3411	36.315990962591	108.76207035665
0	3422	36.410398377263	10.592388357147
0	3429	36.4844524339	13.50364916404
0	3440	36.591212637014	9.3667862258766
0	3443	36.611288511194	49.81103144172
0	3464	37.037579237897	2.3458169210814
0	3467	37.062421989187	40.253190491125
0	3500	37.909978162212	1.1798628006341
0	3527	38.227855433256	3.1458682047814
0	3530	38.237010070489	109.23425740949
0	3553	38.490105401464	3.9510803938883
0	3596	39.060755510789	1.7523872924214
0	3625	39.534672449806	2.1100743984256
0	3638	39.725210061421	5.2483076255863
0	3665	39.864910627565	7.1581671256022
0	3678	39.987302954471	8.1704468350211
0	3709	40.70761471429	1.3882877606375
0	3714	40.727515565742	50.249106296379
0	3731	40.903624648252	5.6782988460758
0	3766	41.731294718167	1.2082108999093
0	3779	41.931179443773	5.0028835218312
0	3784	41.938335475211	139.74225919269
0	3793	42.017199472624	12.680057222602
0	3804	42.04337252619	38.207234684265
0	3845	42.849468516996	1.2405470457682
0	3852	42.926419886625	12.995220290701
0	3859	42.97899301742	19.021123240678
0	3884	43.208860148049	4.3503392471278
0	3925	43.518868105854	3.2257236461943
0	3930	43.540721951546	45.75853669389
0	3961	44.065287011657	1.9063412263646
0	3976	44.629451493907	1.7725327124668
0	3983	44.645800645875	61.165251993332
0	3998	44.825831431701	5.5546055382245
0	4001	44.832813052649	143.23321295271
0	4014	45.055886208973	4.4828343153381
0	4031	45.18913460455	7.5047807943183
0	4034	45.217084173614	35.778726953183
0	4041	45.291259233449	13.48162040212
0	4062	45.487104271812	5.1060777865942
0	4107	45.815847593808	3.0418868858792
0	4130	45.953634979364	7.2575584184633
0	4143	46.072441532607	8.4170441167051
0	4162	46.346858891778	3.6440843357029
0	4167	46.395882265621	20.398432861895
0	4182	46.526205434106	7.6732327154484
0	4201	46.681529941423	6.4381340541394
0	4204	46.690945799276	106.20381229326
0	4213	46.716019318732	39.882713783154
0	4216	46.721048099854	198.8553440167
0	4229	46.77060942297	20.177023879275
0	4238	46.84731554796	13.036768577873
0	4267	47.193159254515	2.8914795355427
0	4270	47.198404230923	190.65862688624
0	4293	47.577615830563	2.6370501349361
0	4318	47.838815915465	3.8284826759348
0	4329	47.970495904172	7.5941683305053
0	4334	47.984136458888	73.310801563446
0	4377	48.398219230888	2.4149761053087
0	4398	48.641814089708	4.1051769517801
0	4413	48.78822052893	6.8303006706124
0	4420	48.820794489553	30.699367865445
0	4423	48.830164704781	106.72113453828
0	4430	48.909968224723	12.530775593944
0	4453	49.072664446785	6.1464242213253
0	4468	49.170650501631	10.205533854503
0	4473	49.238332297087	14.775021750865
0	4480	49.355721699187	8.5186565576689
0	4511	50.100573164945	1.3425495497714
0	4518	50.172472076803	13.908416332851
0	4557	50.434654164417	3.8141430984113
0	4566	50.551624332488	8.5491883656439
0	4585	50.812764848412	3.8293559942687
0	4628	51.214955842627	2.4863808846635
0	4637	51.343251844091	7.7944751869808
0	4700	52.445675840555	0.90709201106605
0	4721	52.785955518977	2.9387590955692
0	4750	53.106412838357	3.1205403637986
0	4759	53.164949762432	17.083234484934
0	4768	53.256625141684	10.908054137973
0	4803	53.649396089802	2.5460131529371
0	4814	53.678581575276	34.263606849742
0	4827	53.973068586295	3.395735508129
0	4858	54.620213376166	1.5452492481618
0	4865	54.809966172451	5.2700145640966
0	4870	54.83486141859	40.168311428479
0	4873	54.857208002577	44.749568908686
0	4880	54.912890585124	17.95893714441
0	4909	55.207009305357	3.3999875941518
0	4932	55.465820895591	3.8638145961542
0	4937	55.489824080709	41.661137681686
0	4980	55.878707753206	2.5714630639519
0	5007	56.196952658988	3.1422341153986
0	5084	57.098976575704	1.1086180548745
0	5093	57.213479291038	8.7334173437114
0	5108	57.536337535307	3.0973345663331
0	5143	58.48669573709	1.0522348290612
0	5170	58.956252788768	2.1296666644158
0	5179	59.028496162044	13.84210003843
0	5194	59.115002730909	11.559815781858
0	5209	59.234132400325	8.3942145134979
0	5216	59.260517865582	37.899653853354
0	5279	59.885070678319	1.6011456190833
0	5310	60.305364077253	2.3792902827794
0	5319	60.385371808537	12.498792103607
0	5338	60.608181586161	4.4881333784532
0	5347	60.63752124891	34.083554693691
0	5358	60.802722727169	6.0532145991588
0	5363	60.810217023918	133.4348016221
0	5366	60.819539979377	107.26212351842
0	5375	60.976085732415	6.3879088419426
0	5378	60.997550980788	46.586928910538
0	5383	61.003201729983	176.96768437092
0	5480	61.747320389774	1.3438716887988
0	5495	61.825173752164	12.84466038847
0	5548	62.192905881462	2.7193707602025
0	5575	62.342338579817	6.6919757925026
0	5582	62.357341297675	66.654589486049
0	5585	62.394367833594	27.007657486177
0	5596	62.445903333133	19.404100259924
0	5609	62.568045632502	8.1871718902142
0	5614	62.606772424867	25.821916531971
0	5619	62.639572646418	30.487598946401
0	5626	62.683359756581	22.837771122082
0	5655	62.875339714388	5.2088770693726
0	5686	63.257071067655	2.6196433471907
0	5711	63.508112041048	3.9834134901736
0	5714	63.513298769049	192.79977662357
0	5735	63.701849032706	5.3036255723256
0	5746	63.875963400806	5.7433514012219
0	5749	63.887824280784	84.310776422562
0	5752	63.903612290996	63.339204027112
0	5767	64.200448419519	3.3688621562874
0	5774	64.223106976295	44.133437530284
0	5777	64.243908158352	48.074191036825
0	5792	64.426381662753	5.4802476846305
0	5799	64.503916345307	12.897453978786
0	5846	64.91399320746	2.4385672352977
0	5853	65.028658610989	8.7210263010769
0	5866	65.159076522581	7.6676584358167
0	5883	65.441560832041	3.5400196276799
0	5892	65.672812202627	4.3242986948184
0	5899	65.737470880753	15.465828083452
0	5912	65.778400535241	24.4321632447
0	5921	65.848531375465	14.259062016168
0	6004	67.967000043317	0.47203907953661
0	6029	68.344941853303	2.64590996174
0	6032	68.354454163567	105.12693260065
0	6085	69.056249636034	1.4249165736062
0	6126	69.394495142146	2.9564324785704
0	6143	69.704213456883	3.2287402856662
0	6190	70.343231593867	1.5649008097325
0	6193	70.349910327574	149.72898215
0	6212	70.435817489091	11.640473068152
0	6217	70.440737736034	203.24183147407
0	6238	70.49768077762	17.561408244934
0	6245	70.534248961666	27.346176084163
0	6248	70.544775780533	94.995459942305
0	6307	70.956240547308	2.4303417467256
0	6348	71.585118215296	1.5901343789156
0	6359	71.788756255194	4.9106738628052
0	6362	71.810935141716	45.087926258519
0	6415	72.804290060018	1.0066895341993
0	6472	73.700817967168	1.1154142464778
0	6487	74.026042841313	3.0747955630053
0	6502	74.181298698614	6.4409808260004
0	6509	74.228397320352	21.232043807201
0	6522	74.387068522691	6.3023408486154
0	6539	74.558104079253	5.8467374860589
0	6564	74.797605834743	4.1753347400485
0	6605	75.23481139921	2.2872535971016
0	6616	75.473875399385	4.1829802867348
0	6623	75.493534272192	50.86761635916
0	6650	75.749287399323	3.9100206172173
0	6699	76.378403200287	1.5895324810912
0	6702	76.386273793712	127.05522264987
0	6705	76.393132057764	145.80949237561
0	6722	76.473766259747	12.401685332123
0	6739	76.779891367276	3.2666382972369
0	6754	77.109887299993	3.0303403795512
0	6767	77.28561348089	5.6906716739388
0	6776	77.349773866858	15.585941152205
0	6781	77.360874534697	90.084670085046
0	6788	77.384100213563	43.055792072623
0	6791	77.386860757218	362.24748635609
0	6794	77.389158392758	435.23003652703
0	6803	77.469784182891	12.402979224767
0	6812	77.490149761157	49.102460383827
0	6845	77.778023661901	3.4737431820514
0	6868	78.167709016728	2.5661729074831
0	6881	78.309226838472	7.0662478243126
0	6890	78.328657568914	51.464869166137
0	6893	78.333588128999	202.8167150913
0	6926	78.76487595668	2.318637197291
0	6933	78.82393572962	16.931998722987
0	6984	79.808388329162	1.0157929396146
0	6987	79.829713934542	46.89198651954
0	7022	80.244239873717	2.4123942689575
0	7129	81.625384378655	0.72403719989089
0	7148	81.828123683995	4.932442667311
0	7207	82.501115187584	1.4859028600912
0	7248	83.315853196321	1.2273884233659
0	7269	83.622751120627	3.2584123931804
0	7272	83.631142156173	119.17480202747
0	7295	84.310755401767	1.4714251178639
0	7306	84.447258946672	7.3258170745379
0	7309	84.455790356824	117.2139168301
0	7312	84.46761112219	84.596891067333
0	7315	84.488964797773	46.83034525429
0	7326	84.697760162275	4.7893783580163
0	7353	85.417791850523	1.3888277645575
0	7356	85.428817290147	90.699331192492
0	7359	85.437885219695	110.27875709737
0	7374	85.864456334035	2.3442750021816
0	7381	85.881259558203	59.512388217994
0	7388	85.970748044664	11.17462189324
0	7443	86.952663630027	1.0184174840552
0	7456	87.205080844483	3.9616949349321
0	7481	87.576730600155	2.6907053879044
0	7518	88.242152528487	1.5028059001703
0	7521	88.269008496328	37.235671636207
0	7546	88.765774791835	2.0130190172814
0	7561	89.064541974166	3.3470878300553
0	7564	89.110371733845	21.819883128434
0	7587	89.605289604117	2.020537265002
0	7590	89.611469821196	161.80661410712
0	7629	90.227748828506	1.6226416738823
0	7634	90.243544142087	63.309917519009
0	7663	90.665479731461	2.3700299884246
0	7670	90.815467145981	6.6672260682689
0	7681	91.332834243628	1.9328635403141
0	7712	92.523933716245	0.83956044225498
0	7755	94.532565431255	0.4978513445383
0	7764	94.663389725054	7.6438402299837
0	7809	96.164969114311	0.66596545421072
0	7832	96.387699583376	4.4897314866614
0	7841	96.453061492349	15.299430749691
0	7850	96.542673997689	11.159156818637
0	7853	96.570393862056	36.075212589802
0	7864	96.787653906961	4.6027791278293
0	7867	96.799741331413	82.730610145368
0	7870	96.835739798782	27.778960413774
0	7877	96.842352910754	151.21473887544
0	7884	96.98642844167	6.9408038522726
0	7909	97.266462531475	3.5709938054197
0	7932	97.558516954325	3.4240193668069
0	7937	97.716756741982	6.3195231414718
0	7954	98.006650079762	3.4495446071924
0	7975	98.213827743567	4.8267751534317
0	7986	98.951342517272	1.355905041707
0	8003	99.222596683986	3.6865793145746
0	8008	99.263487608124	24.455304473559
0	8031	100.632023511447	0.73070790292886
0	8036	100.667653479458	28.066261515903
0	8045	100.946993686751	3.5798641724036
0	8048	101.013400808115	15.058625934388
0	8051	101.016599732359	312.60508962525
0	8062	101.773725424663	1.3207846598851
0	8069	101.910010259497	7.3375735548129
0	8112	103.331771279352	0.70335308538842
0	8135	103.929924676817	1.6718119536528
0	8176	104.768381625339	1.1926670794043
0	8281	106.704414136321	0.51652025176621
0	8308	107.03460503947	3.0285510305193
0	8353	108.317206386926	0.77966548373231
0	8382	108.656047232544	2.9512380603824
0	8403	109.558273366168	1.1083695791245
0	8410	109.703128128884	6.9034664877439
0	8419	110.331127660602	1.5923578752747
0	8424	110.342511232721	87.845887876524
0	8455	110.735148334672	2.5468810640437
0	8502	111.578862549011	1.1852354541442
0	8507	111.594039587322	65.889008086329
0	8516	111.641051716643	21.271106296249
0	8587	113.069236180368	0.7001896641501
0	8618	113.597310175766	1.8936740091629
0	8635	113.938752957081	2.9287484015585
0	8670	114.626905126866	1.4531669649642
0	8677	114.784759692508	6.3349450548545
0	8684	114.815700764367	32.319500906661
0	8713	115.209580097991	2.5388486133538
0	8726	115.527052239903	3.1498826762481
0	8777	116.671936005786	0.87345111337896
0	8784	116.732501473271	16.5110588843
0	8841	118.59686494131	0.53637609679825
0	8874	119.302476404544	1.4172105359751
0	8881	119.385740816057	12.009932957298
0	8904	119.896683374411	1.9571671681089
0	8911	120.023434095609	7.8895014604128
0	8936	120.153003480616	7.7178725510349
0	8965	120.503356010767	2.854267955676
0	8988	120.957005295148	2.2043460321215
0	9029	121.304187487546	2.8803320616561
0	9038	121.396184064347	10.869969674667
0	9079	121.716853037347	3.1184806894305
0	9110	121.997912938369	3.5579604075991
0	9117	122.035481096121	26.61828686414
0	9130	122.32366323603	3.4700276717904
0	9135	122.333636951021	100.26354281252
0	9138	122.338576437558	202.45019244598
0	9155	122.509065904866	5.8654649802702
0	9176	122.718620618004	4.7720234254119
0	9215	123.069272810413	2.8518287398403
0	9234	123.540883230038	2.1203942033239
0	9263	123.905827117037	2.7401472818827
0	9330	125.267405611133	0.73444168245617
0	9345	125.384453839492	8.5434868517009
0	9362	125.590549363151	4.8521189701071
0	9385	125.925158044784	2.9885656137781
0	9388	125.936201752614	90.549298785642
0	9391	126.004169266034	14.712911355467
0	9400	126.108289361907	9.6042938840524
0	9433	126.605940191038	2.0094410407116
0	9436	126.610686343929	210.69696298581
0	9443	126.648314786445	26.575641539636
0	9486	126.917769326768	3.711201150299
0	9529	127.338032186266	2.3794631797692
0	9536	127.373040716805	28.564466562971
0	9611	128.574385973478	0.83240017342674
0	9614	128.577932585472	281.95923368323
0	9623	128.653183282127	13.288913517767
0	9650	128.815442834884	6.162965341693
0	9653	128.819378817872	254.0661387635
0	9668	129.322481380391	1.9876662821852
0	9683	129.488162229575	6.0357005950002
0	9804	132.435133420042	0.3393314475672
0	9829	133.138431185681	1.4218728522355
0	9834	133.14445850419	165.91125863131
0	9839	133.16829278167	41.956379875124
0	9866	133.454748765077	3.490937728395
0	9885	133.739306611761	3.5142239500796
0	9896	133.844034724241	9.5485345464521
0	9911	134.063743485012	4.5514798612982
0	9928	134.152512677529	11.265169499075
0	9943	134.214337270527	16.174793096209
0	9964	134.621038417327	2.4588079179717
0	9971	134.681709522985	16.48231046978
0	9994	135.019669416267	2.9589309852385
0	10013	135.661194256239	1.5587860947733
0	10032	135.952392694658	3.4340843495909
0	10045	136.000221408423	20.907942557547
0	10048	136.001327846141	903.80143747052
0	10057	136.024007944283	44.091519963406
0	10092	136.220108890153	5.0994144651547
0	10099	136.358899784168	7.2050836410919
0	10114	136.472973784299	8.7662394485301
0	10117	136.484465512894	87.019110461336
0	10166	136.959026559324	2.1072104580069
0	10217	138.298902903813	0.7463375289168
0	10252	139.281451459164	1.0177614068577
0	10259	139.331477072535	19.989759897271
0	10312	140.386311395807	0.94801617461412
0	10333	140.735254607925	2.8657958237108
0	10336	140.738307394453	327.56957973578
0	10339	140.753744385445	64.779463855245
0	10356	140.984886960311	4.3263340844054
0	10371	141.124859468337	7.1442600700864
0	10376	141.143941531279	52.405235379398
0	10385	141.179560812867	28.074681897484
0	10396	141.223473197303	22.772618996754
0	10411	141.790975316785	1.7621079563769
0	10454	142.561437123233	1.2979228712325
0	10475	142.979347069154	2.3928600162798
0	10478	142.982032919385	372.32157938594
0	10487	143.060677884935	12.715372090337
0	10534	143.913094945226	1.1731346621085
0	10537	143.923427751354	96.779131207174
0	10586	144.886150006804	1.0387211829154
0	10611	145.370953601667	2.0626909754714
0	10614	145.38842937065	57.22208853715
0	10619	145.401336459334	77.476805535522
0	10622	145.402089372123	1328.1750750019
0	10639	145.535767490805	7.4806558459941
0	10644	145.617843414248	12.183840985895
0	10715	146.916059864328	0.7702875741086
0	10726	147.032710912023	8.5725762413608
0	10739	147.188994038559	6.3986434246927
0	10742	147.204023127672	66.53763195369
0	10749	147.57125562325	2.7230705671241
0	10768	148.149524146356	1.7293004202075
0	10771	148.154129706971	217.12883264267
0	10796	148.508818095369	2.8193761981232
0	10837	148.753215163048	4.0917021202293
0	10858	148.898803627774	6.8686760443694
0	10873	149.1027853843	4.9023991999625
0	10882	149.153042463225	19.897694442057
0	10897	149.366611004916	4.6823375394249
0	10900	149.374149776707	132.64760198655
0	10905	149.585742659727	4.7260568773737
0	10916	149.677608000848	10.885498141055
0	10919	149.6822469659	215.56532303878
0	10930	149.891336677303	4.782636090939
0	10941	149.923468060567	31.122220658343
0	10944	149.929318448815	170.92882687604
0	10951	149.980716773658	19.455886997379
0	10988	150.799916385399	1.2207037035513
0	10993	150.856850486821	17.564165851814
0	11002	150.93618115793	12.605465024064
0	11021	151.542268427023	1.6499274130877
0	11048	151.88576137753	2.911267897999
0	11057	151.939440227349	18.629311234721
0	11082	152.843209433787	1.1064771767798
0	11099	153.217170154055	2.6740776391792
0	11116	153.656217738694	2.2776574453137
0	11135	153.971368614544	3.1730833598443
0	11204	155.036970542637	0.93843674043421
0	11207	155.0580453129	47.450102066149
0	11224	155.128952741444	14.102894725332
0	11263	155.641049969874	1.9527541733936
0	11326	156.498688921016	1.1659918181986
0	11349	157.180219249227	1.4672861332891
0	11398	158.605125756688	0.70180043024849
0	11423	159.114795235924	1.9620558827635
0	11426	159.133668809339	52.984137026496
0	11433	159.409107652886	3.6305699919531
0	11452	160.060306101939	1.5356301929991
0	11503	162.330657740287	0.44046040406659
0	11514	162.55560363568	4.4455134344768
0	11521	162.656533989705	9.907822177581
0	11562	163.106474846822	2.2225143242325
0	11585	163.435274174131	3.0413687527414
0	11592	163.751768948441	3.1596098298309
0	11601	163.808104111189	17.750902832627
0	11626	164.047691051281	4.1738502090974
0	11667	164.646273571823	1.6706134337076
0	11706	165.809373514214	0.85977134341894
0	11737	166.849918981363	0.96103441086521
0	11746	167.177618526002	3.0515757997211
0	11781	168.167962286572	1.0097503915453
0	11784	168.172001810071	247.55395042201
0	11789	168.179196112009	138.99889226473
0	11800	168.208015105614	34.699338002785
0	11813	168.263082850549	18.159450712579
0	11826	168.345288262643	12.164649194344
0	11833	168.47198334385	7.892966249938
0	11874	169.252498947641	1.2812043668864
0	11879	169.263587282984	90.18486265671
0	11884	169.293261886457	33.698849621019
0	11913	169.828505242856	1.8683090374587
0	11924	169.894234071831	15.214024281193
0	11939	170.029933427481	7.3692317491855
0	11990	173.054838336264	0.33058890449628
0	12001	173.781515032029	1.3761277963473
0	12008	174.006366475768	4.4473808278535
0	12015	174.428052200794	2.3714343186228
0	12022	174.459566306527	31.731822202806
0	12025	174.463973687258	226.89212959669
0	12042	174.75151531525	3.4777573145959
0	12047	174.774357682603	43.778299532017
0	12062	175.253516976553	2.0869886332714
0	12153	176.717438590276	0.68309668402042
0	12156	176.730153085113	78.650391763103
0	12175	176.850545650985	8.306160706494
0	12190	177.217471385869	2.7253471341173
0	12213	177.539505351138	3.1052625121847
0	12228	177.800619158988	3.829747680653
0	12251	179.171435018307	0.72949258151768
0	12304	179.848808666109	1.4762900848666
0	12317	179.904052228073	18.10165681662
0	12336	180.100358629871	5.0940773751689
0	12341	180.162187562242	16.173657892062
0	12344	180.167346675592	193.8317559935
0	12417	181.838388947477	0.59842890681153
0	12444	182.376022876028	1.8600016607864
0	12467	182.94971089826	1.7431076843985
0	12470	182.955445558944	174.37823353526
0	12485	183.233217084063	3.6000810362819
0	12496	183.323446643545	11.082842537866
0	12519	183.74264545074	2.3855029709921
0	12590	185.021992222317	0.78164890256247
0	12599	185.046613700001	40.614946545221
0	12646	185.820440702317	1.292278502827
0	12651	185.872803334376	19.097588503062
0	12656	185.890350743779	56.988469182752
0	12693	186.545972699329	1.5252692371492
0	12698	186.579554208766	29.778292184157
0	12737	187.53684518002	1.0446144694022
0	12744	187.588379800971	19.404431070732
0	12759	188.312627145299	1.3807437580981
0	12768	188.353268356827	24.605565690655
0	12771	188.358686619191	184.56101473494
0	12798	189.047984611314	1.4507513606997
0	12823	189.411822155778	2.7484794112526
0	12840	190.490619158283	0.92695845249659
0	12855	190.622131403958	7.6038546438577
0	12858	190.629383004377	137.90059327868
0	12885	190.914731548326	3.5044860792376
0	12904	191.307655869832	2.5450193466447
0	12917	191.565680008002	3.8756063951705
0	12934	191.960383364223	2.5335482565294
0	12961	193.044807945777	0.92214803777961
0	12980	193.94659977489	1.1089033718387
0	12993	194.069958564115	8.1064349470556
0	13030	195.008772678491	1.0651735894114
0	13037	195.109261797802	9.9513261421382
0	13040	195.141133889785	31.375411458193
0	13045	195.231877527995	11.02005627861
0	13098	195.734770553857	1.9884944681544
0	13107	195.792433436799	17.342178347306
0	13118	195.90081325836	9.2268098027562
0	13165	196.614182469922	1.4017986531973
0	13174	196.717582551695	9.6711722355825
0	13177	196.727596156004	99.864141735781
0	13214	197.541029192506	1.2293574948717
0	13283	198.979051753447	0.69539938187453
0	13286	198.999095830797	49.890048942562
0	13299	199.322288266895	3.0941318184092
0	13304	199.339160793582	59.267945966296
0	13307	199.347122471717	125.60166123822
0	13340	199.748003745826	2.4945041452051
0	13345	199.764916330247	59.127568862765
0	13356	199.949633293749	5.4136879528619
0	13377	200.142651258186	5.1808649154333
0	13410	200.447808882734	3.276994967703
0	13413	200.451029158212	310.53243948591
0	13424	200.520328901164	14.430067954114
0	13431	200.576444335362	17.820409202779
0	13458	200.885118238995	3.2396648638913
0	13509	201.996789365414	0.89954661611234
0	13514	202.229481990104	4.2975148066348
0	13541	203.182954179456	1.0487982881594
0	13574	204.281948047195	0.90992318461006
0	13677	208.654364121954	0.22870650525982
0	13692	208.792472986741	7.240664830185
0	13703	209.131317962888	2.9512020847143
0	13714	209.428514994107	3.3647711617385
0	13717	209.459036508056	32.76377448612
0	13740	209.816683904389	2.7960499929627
0	13769	210.241449361959	2.3542403982678
0	13774	210.253365455519	83.920119875259
0	13793	210.445244477714	5.2116171354247
0	13814	210.565896345072	8.2883093473621
0	13851	211.572195376566	0.99374039793654
0	13874	211.724740018803	6.5554580307472
0	13877	211.729079901387	230.42098044006
0	13888	211.813791465614	11.804763719394
0	13951	212.904483856142	0.91684879135895
0	13996	213.843602313221	1.0648283956748
0	14023	214.589996213368	1.3397751506317
0	14048	214.773924220008	5.4369098989763
0	14055	214.821240588148	21.134335522988
0	14086	215.174210636272	2.833101577074
0	14151	216.536242009725	0.73419747848011
0	14164	216.745883720624	4.7700431164759
0	14229	218.330139895711	0.6312110476357
0	14254	218.652831109266	3.0989378018176
0	14287	218.972754328916	3.1257499880565
0	14300	219.018371713981	21.921466970873
0	14321	219.152947106324	7.4307790049108
0	14342	219.484207838538	3.0187701189828
0	14391	220.056000539185	1.748885564416
0	14396	220.209924241844	6.4967252133701
0	14419	220.5080538331	3.3542460370575
0	14434	220.590622517752	12.111129106812
0	14477	221.620425803911	0.97105924348896
0	14502	222.246273725582	1.5978322614382
0	14563	224.110813855948	0.53632527598304
0	14602	225.56437373057	0.68796615637182
0	14605	225.571114448792	148.35214395051
0	14610	225.59451693887	42.730495629611
0	14679	226.704961872691	0.90053992732358
0	14702	227.830303398562	0.88861912318219
0	14721	228.389364621339	1.78871286231
0	14732	228.424273137216	28.646305203106
0	14737	228.445404509104	47.323004171247
0	14740	228.449915724046	221.6697747407
0	14753	228.534618209124	11.806029056634
0	14758	228.562994450822	35.240748603804
0	14783	229.134209834603	1.7506531308397
0	14800	229.553499195843	2.3849877732233
0	14807	229.733905581306	5.5430410483175
0	14818	230.119637965355	2.5924709496856
0	14857	230.457522340261	2.9595923169818
0	14868	230.591841741578	7.444940866286
0	14897	230.798700357798	4.8342197113823
0	14912	230.981137636135	5.4813358822027
0	14937	231.301469316808	3.1217642847534
0	14948	231.663388492254	2.7630478511333
0	14951	231.684213322362	48.01959943077
0	14962	231.927631943103	4.1081491504465
0	14989	232.437422519966	1.9615898084141
0	14992	232.446000458172	116.57813054663
0	15021	232.781503999674	2.9805944686102
0	15050	233.36823088945	1.7043704957545
0	15053	233.372829714598	217.44684083823
0	15060	233.594654669469	4.5080590710885
0	15063	233.603147122092	117.75161362593
0	15078	233.72907404017	7.9411139037056
0	15081	233.739597555544	95.025280475254
0	15114	234.458799927476	1.3904292296947
0	15131	234.771483062671	3.1981257939491
0	15154	235.21573094551	2.2509955334158
0	15195	235.554596361022	2.9510240768863
0	15206	235.612890921308	17.154259249815
0	15209	235.646243011297	29.983128503486
0	15212	235.673657802873	36.476658858696
0	15215	235.675967627438	432.93331240505
0	15230	235.939685916112	3.7919251070075
0	15281	237.053575320619	0.89775519540254
0	15288	237.330996053866	3.6046332525178
0	15303	238.114423087001	1.2764430606873
0	15310	238.191393402564	12.992021569426
0	15325	238.487485266782	3.3773302168942
0	15340	238.892383225524	2.4697580672102
0	15347	239.024068775523	7.5938476165957
0	15354	239.09924831114	13.301492112088
0	15371	239.385693908543	3.4910643035407
0	15374	239.39330684985	131.35527513926
0	15401	240.3706902145	1.0231399839285
0	15422	240.701011794767	3.0273529183037
0	15491	242.320078167868	0.61763990446216
0	15498	242.583750063186	3.7925923003434
0	15525	242.913459891368	3.0329699466769
0	15562	243.586678061213	1.4854025705073
0	15565	243.596303564645	103.89066993374
0	15568	243.605091819124	113.78823888061
0	15607	244.366502474958	1.3133517272682
0	15618	244.426638988772	16.628832244798
0	15631	244.52327363505	10.348255398206
0	15646	244.623391439754	9.9882333912186
0	15685	245.943040606206	0.75777716185628
0	15748	247.780405651826	0.54425765983948
0	15767	248.612771062206	1.2013954298551
0	15794	250.0864652922	0.67856681504688
0	15815	250.816379535366	1.3700239574207
0	15836	251.233374409086	2.3981110153202
0	15851	251.331253438712	10.21669303242
0	15872	252.869207722806	0.65021438565652
0	15875	252.897432399802	35.429989159547
0	15890	253.321114178117	2.3602619965792
0	15917	253.758906338484	2.2841889154929
0	15924	254.013889486508	3.9218278060708
0	15927	254.028890990672	66.659982163639
0	15934	254.261473219796	4.299554629631
0	15949	254.709622311543	2.2314002603503
0	15990	256.50752362161	0.55620405547329
0	16001	256.698059009294	5.2483688838867
0	16004	256.774276712868	13.120311333299
0	16015	256.922121605675	6.7638454126746
0	16036	257.430196216374	1.9682148624278
0	16049	257.918560340161	2.0476524611299
0	16064	258.237143093844	3.1389018659655
0	16071	258.661249651712	2.3578979891918
0	16096	259.803073761245	0.87579163169798
0	16105	260.07824377715	3.6341168811984
0	16124	261.310459553115	0.81154617519554
0	16127	261.322782777014	81.147596456569
0	16136	261.350443410461	36.152462014873
0	16141	261.359441122604	111.13936344118
0	16152	261.620626321861	3.8287008714304
0	16171	262.128446569843	1.9692007240236
0	16178	262.154086820578	39.001178667686
0	16211	262.680717193389	1.8988650325318
0	16230	263.097962141238	2.3966737168544
0	16277	264.674189507183	0.63442623926306
0	16284	265.025317425514	2.8479649375454
0	16305	265.399998018983	2.668939938259
0	16310	265.431136772316	32.114323566712
0	16313	265.438787019001	130.71473916792
0	16370	267.224061779693	0.56013786898123
0	16373	267.229484539169	184.40795768756
0	16396	267.5436219198	3.1833206159398
0	16399	267.54629363175	374.29184684374
0	16410	267.684700039925	7.2250989906162
0	16447	268.358503413045	1.4841124872521
0	16450	268.375572017393	58.587098254297
0	16453	268.385804859987	97.724556086336
0	16468	268.464428980798	12.718743175569
0	16497	269.00329573232	1.8557463365026
0	16508	269.36896128977	2.7347393803605
0	16511	269.379625372683	93.772714274469
0	16522	269.443804517988	15.581385436775
0	16557	270.113137715929	1.4940242065928
0	16564	270.219928875189	9.3640710235699
0	16573	270.289366862195	14.401339138959
0	16596	271.506823097304	0.82138476206536
0	16599	271.512319300514	181.94378224236
0	16614	271.826655152849	3.1813106668286
0	16623	272.076547207788	4.0017278670348
0	16626	272.089736807767	75.817310729072
0	16669	273.636185169249	0.64664299494726
0	16674	273.646700576013	95.09855609424
0	16695	273.906265721906	3.8525973761216
0	16706	273.998555234482	10.835467347132
0	16729	274.39431974177	2.5267551323704
0	16736	274.439243756253	22.259809402795
0	16739	274.458786337216	51.170313782673
0	16742	274.474586547058	63.290298673237
0	16745	274.484154275157	104.51802033385
0	16748	274.494558065053	96.118819199192
0	16753	274.52567173397	32.14021472902
0	16774	274.715955564145	5.2553072905896
0	16787	275.096909983601	2.6249859535112
0	16816	275.646154274687	1.8206834667735
0	16823	275.693154520203	21.276484601758
0	16830	275.798494812142	9.4930437498605
0	16861	276.814096634253	0.98463785533727
0	16884	277.119044122205	3.2792531157279
0	16891	277.170980060372	19.254489960006
0	16954	278.149006571998	1.0224671704834
0	16977	278.787183363102	1.56696391022
0	16980	278.790833623713	273.95304241744
0	17015	279.40933141069	1.6168206597596
0	17078	280.929638198584	0.65776197801843
0	17101	281.314002898433	2.6016957342671
0	17108	281.338630860576	40.604252767387
0	17139	281.854065591504	1.9401098528995
0	17162	282.282798563895	2.3324541483784
0	17177	282.607979139609	3.0752144337167
0	17206	282.950786206855	2.9170927193353
0	17209	282.957801901001	142.53757065082
0	17252	284.841555473127	0.53085499865643
0	17289	285.715596236147	1.1441113988148
0	17296	285.808738728461	10.736238371514
0	17301	285.858233370209	20.204207257251
0	17304	285.862092108525	259.15206425208
0	17361	287.306157124945	0.69248959612574
0	17372	287.908622992683	1.6598450693225
0	17375	287.920240703533	86.075476736452
0	17398	288.364758774349	2.2496273282306
0	17409	288.822194053509	2.1861016094699
0	17430	289.047765806089	4.4331791927065
0	17437	289.089657338372	23.871172657148
0	17442	289.141985433074	19.110193208731
0	17455	289.56773751148	2.3487847757408
0	17490	290.500259155827	1.0723611683032
0	17495	290.513801158925	73.844319246071
0	17538	291.52915769607	0.98487571943134
0	17553	291.915610687418	2.5876368468824
0	17556	291.940818185934	39.670735252261
0	17609	293.311626524589	0.72949658373188
0	17628	293.612968092739	3.3184933832369
0	17645	294.311932983342	1.4306870251198
0	17658	294.787426145195	2.1030796659683
0	17669	294.948368918779	6.2133886333087
0	17688	295.351660271513	2.4795969296658
0	17711	296.04950633352	1.4329807882329
0	17762	297.982808753982	0.51724964983028
0	17777	298.38064945614	2.5135688595353
0	17804	299.103799657939	1.3828385825134
0	17823	299.414729721347	3.2161573218084
0	17834	299.639856499817	4.4419415886292
0	17879	300.076133138682	2.2921236456794
0	17882	300.08750780335	87.914679613657
0	17897	300.135642521897	20.775025390947
0	17902	300.194839540214	16.89274271628
0	17923	300.521502086977	3.0612630982931
0	17948	301.236980868203	1.3976654881176
0	17961	301.346478407374	9.1326253317741
0	17986	301.967844128641	1.6093581698729
0	17997	302.128086597906	6.2405428759729
0	18018	302.986270186775	1.1652518330232
0	18031	303.286224972176	3.3338357934951
0	18044	303.516904634477	4.3350158831738
0	18057	303.630670851837	8.7899556054994
0	18060	303.633894537261	310.20396486428
0	18087	305.041658538082	0.71034633604553
0	18138	306.698274269198	0.60364028978907
0	18149	307.026106486214	3.0503408392934
0	18152	307.030359440921	235.13064890018
0	18169	307.316154665693	3.4990087773432
0	18184	307.510445628569	5.1469197805058
0	18227	309.230329823286	0.58143449603858
0	18230	309.24891101907	53.817849595077
0	18233	309.255689545447	147.52468964244
0	18236	309.260928140414	190.89087938644
0	18267	310.147259325214	1.1282464355868
0	18274	310.818897962346	1.4888958804844
0	18281	310.918752251984	10.014592298691
0	18304	311.360897779677	2.2616987787205
0	18355	313.235632283246	0.53340886301301
0	18360	313.247820778517	82.044582023122
0	18369	313.321178993385	13.631738473999
0	18372	313.3322022648	90.717171187425
0	18383	313.39599282374	15.676300954512
0	18392	313.434167782873	26.195181938926
0	18395	313.439234485966	197.36700210075
0	18400	313.522250404346	12.045882518851
0	18423	313.833515710866	3.2126934131535
0	18446	314.030587748782	5.0742865937492
0	18481	314.853220142765	1.2156098000934
0	18506	315.728484414126	1.1425120763184
0	18513	315.811188585764	12.091288506909
0	18546	316.760774063783	1.0530910835812
0	18553	316.82760106296	14.964011736504
0	18560	316.853712989077	38.296676986573
0	18565	316.925352575931	13.95876280021
0	18596	317.522158469053	1.6755866715203
0	18607	317.71865459389	5.0891588871258
0	18622	317.971058069265	3.9619105819137
0	18637	318.607691692544	1.5707621517844
0	18668	319.449297414658	1.1882048490452
0	18727	320.90086228346	0.68891168523892
0	18750	321.311342711001	2.4361697486785
0	18765	321.490965207224	5.5672313937699
0	18768	321.503493670435	79.818249306268
0	18777	321.678621446146	5.7101164903175
0	18822	322.382498547961	1.4207025593267
0	18875	323.365397712117	1.0173983623831
0	18906	324.168217392125	1.2456097239545
0	18909	324.195773053494	36.290183226195
0	18928	324.44770722051	3.9692909137509
0	18931	324.462605964611	67.119751384473
0	18970	325.283332293977	1.218432946793
0	18981	325.401689190888	8.4490217815694
0	19024	326.637129412495	0.80942807471433
0	19035	327.094678488794	2.1855579036215
0	19052	327.602601224702	1.9688033815071
0	19063	327.766017647822	6.1193359939452
0	19116	329.280159843798	0.66043995250751
0	19141	329.547000222076	3.7475587707276
0	19152	329.614820885633	14.744768740865
0	19165	329.762293329902	6.7809278198165
0	19188	330.379992842446	1.6189101329892
0	19195	330.589631540707	4.7701116649513
0	19202	330.616610501891	37.065919372502
0	19213	330.788764091695	5.8087664691658
0	19226	331.020163396061	4.3215341668371
0	19229	331.022508665385	426.39026135149
0	19240	331.107918968692	11.708189308327
0	19247	331.129014713956	47.402923550964
0	19258	331.377687157633	4.0213542972976
0	19273	331.571219364804	5.1670986169058
0	19286	331.683081113981	8.9396063208138
0	19353	333.044285777654	0.73464338367873
0	19366	333.123572545445	12.612445025329
0	19369	333.14054825294	58.907706809542
0	19382	333.200049100956	16.806483156864
0	19453	334.455489393835	0.79653330044616
0	19472	334.918210798664	2.1611276019737
0	19499	336.195328195284	0.78301337265202
0	19552	337.318289408469	0.89050270682435
0	19569	337.597401684219	3.5827875979762
0	19576	337.750325177781	6.5392175963765
0	19579	337.755923388507	178.6285027385
0	19582	337.762061638666	162.91287811621
0	19633	338.972137930578	0.82639417587459
0	19636	338.977080812836	202.31111076569
0	19641	339.009245401592	31.090091267325
0	19648	339.056746639973	21.052082726331
0	19677	339.503386721259	2.2389392307128
0	19694	339.88870272142	2.5952724506176
0	19705	340.0750113506	5.367437914182
0	19742	341.346916397117	0.78622221268672
0	19749	341.441445573702	10.578744427133
0	19752	341.443950972339	399.13807935867
0	19755	341.457215472997	75.389192988346
0	19770	341.707599940943	3.9938579585363
0	19777	341.879295036689	5.8242781813603
0	19852	344.163815772473	0.43772857227178
0	19855	344.172997125282	108.91641142684
0	19874	344.9670435229	1.2593722520495
0	19881	345.009714581518	23.435087677393
0	19884	345.035607386971	38.620766753729
0	19887	345.042853430074	138.00635543915
0	19936	346.192103868419	0.8701323633516
0	19963	346.488898209049	3.3693364835641
0	19968	346.553316752396	15.523480476939
0	19971	346.557483979935	239.96769810174
0	19992	346.842118359787	3.5132790371984
0	19997	346.971218579897	7.745920178509
0	20016	347.579714659814	1.6433959609672
0	20039	348.255829774158	1.4790380791446
0	20046	348.390269136135	7.4382977224414
0	20097	348.992027624016	1.6617962523825
0	20104	349.047313101244	18.087932855783
0	20123	349.156160195656	9.1871997631363
0	20130	349.271861838825	8.6429196043426
0	20169	349.869120113609	1.6743175309905
0	20184	350.028102301191	6.2900128323132
0	20233	350.929287376346	1.1096499793097
0	20244	351.040548241517	8.987886247901
0	20297	352.014234605471	1.0270247556299
0	20318	352.587526675921	1.7443115848699
0	20327	352.752666249984	6.0554837062769
0	20422	356.372688171495	0.27624142109686
0	20431	356.462711601858	11.108219226569
0	20446	357.708685333763	0.80258513834884
0	20465	358.510014684145	1.247926335811
0	20568	361.256405166325	0.36411428254231
0	20599	361.714968093108	2.1807257883131
0	20608	361.892519347513	5.6321764853261
0	20619	362.035884336279	6.9752036993648
0	20628	362.218272374926	5.4828156902078
0	20631	362.236354004464	55.304749934093
0	20634	362.248398759205	83.023691349732
0	20645	362.521970894857	3.6553430327132
0	20682	363.402232215822	1.1360262869482
0	20701	363.816019081863	2.4167030954069
0	20720	364.758767810036	1.060728028706
0	20735	364.99611196672	4.2132910031208
0	20742	365.042821802578	21.408767160733
0	20785	367.111997338056	0.4832842757195
0	20838	369.200777376659	0.47874835143906
0	20849	369.259324318483	17.080311436354
0	20852	369.260870557156	646.73068748165
0	20909	370.305269760048	0.95748828343697
0	20912	370.333027256123	36.02630429265
0	20931	370.543422046105	4.7529694061605
0	20948	370.718276857262	5.7190305109884
0	20965	370.784373939889	15.129260782102
0	21004	371.456956900656	1.4868054326854
0	21015	371.772912446654	3.1650022057417
0	21042	372.188922607072	2.4037874435452
0	21071	373.000328694449	1.2324285158282
0	21080	373.442654443897	2.2607772693495
0	21119	374.780453311873	0.74749652129167
0	21122	374.807521252493	36.944073952236
0	21135	374.934564689832	7.8713235484303
0	21152	375.13553226049	4.9759271942525
0	21155	375.158129961263	44.252289648636
0	21158	375.173144562982	66.601833249734
0	21163	375.186363158109	75.65100454264
0	21168	375.206578672681	49.466957491405
0	21171	375.220533545657	71.659555892757
0	21178	375.244986379817	40.895055086735
0	21189	375.451420565441	4.8441589118452
0	21208	376.007257944282	1.7990873555232
0	21269	377.601875607921	0.62710957165616
0	21310	378.866162428987	0.79095975955586
0	21325	379.267066344833	2.4943632638004
0	21332	379.469908740756	4.9299358521658
0	21421	381.074787738325	0.62309993558066
0	21454	381.793057854399	1.3922338931013
0	21465	381.979895768288	5.3522327411239
0	21516	383.217078734137	0.8082878827173
0	21523	383.394413626159	5.6390481793957
0	21526	383.458545023625	15.592986267454
0	21565	384.215084702735	1.3218077354203
0	21568	384.218557414524	287.95939909772
0	21585	384.457895028839	4.1781982446097
0	21600	384.651960931098	5.1528887267656
0	21609	384.666556532281	68.513793125886
0	21620	384.710696630382	22.655137687094
0	21627	384.824558516062	8.7825701640883
0	21654	386.056613858144	0.81165185186417
0	21679	386.579535612897	1.9123319902274
0	21706	387.103284211181	1.9093129858035
0	21721	387.335302974433	4.3099962519578
0	21748	388.143819793198	1.2368326505904
0	21751	388.1493191901	181.83812112858
0	21802	389.388429000396	0.80703097634351
0	21843	390.349017915909	1.0410280442034
0	21858	390.560621350816	4.7258212062555
0	21877	391.449184867301	1.1254119502406
0	21880	391.476130703009	37.111485827961
0	21889	391.724080488684	4.0330746698477
0	21892	391.744326448758	49.392569991492
0	21909	392.037851576878	3.4068633455844
0	21920	392.193955932227	6.4059711707871
0	21953	392.872053164843	1.4747147634597
0	21958	392.920130114672	20.799988425988
0	21963	392.97094266501	19.680177305569
0	22024	393.911247403484	1.0634850161692
0	22031	394.004695492115	10.701128451634
0	22040	394.038204776948	29.842475152296
0	22045	394.0570983552	52.928036535067
0	22048	394.064931336082	127.66531861427
0	22071	394.514309659685	2.2252964762124
0	22106	395.129597219914	1.6252563266968
0	22113	395.202857824176	13.649901063111
0	22116	395.223942224595	47.428429555856
0	22175	396.983329622127	0.56837965385154
0	22190	397.877343549321	1.1185508072997
0	22265	400.797875695232	0.34240335323824
0	22336	403.409659217924	0.3828801243716
0	22355	403.8933042197	2.0676322433353
0	22406	406.559073568692	0.3751262277729
0	22409	406.569441649106	96.4498692207
0	22468	408.130743013783	0.64049133794671
0	22491	408.520213582537	2.5675881060775
0	22514	409.322610766322	1.2462655904186
0	22521	409.722175299981	2.5027246308438
0	22544	410.494798115653	1.2942926091695
0	22551	410.625649539561	7.6422553926741
0	22564	410.977962176073	2.8383881143189
0	22591	412.497934490538	0.65790672006548
0	22602	412.548221811704	19.885728187806
0	22663	413.16411937652	1.6236466210071
0	22680	413.556627245951	2.5477196201178
0	22685	413.641867283514	11.731576247382
0	22692	413.742213982615	9.9654498748732
0	22723	414.06825166527	3.0671301300413
0	22752	414.689276928272	1.6102404516783
0	22773	414.936330608907	4.0477033065434
0	22800	415.506154506064	1.7549281541003
0	22815	415.812440284627	3.2649246879555
0	22830	415.996643575551	5.4287846595129
0	22861	416.68557663952	1.4515198243483
0	22892	417.677106363354	1.0085426346406
0	22899	417.78776475393	9.0368203874536
0	22910	418.28486298732	2.0116748216553
0	22923	418.420545983881	7.3701202460577
0	22926	418.422545149336	500.20872334451
0	22931	418.443918203974	46.787883947204
0	22942	418.567870898339	8.0675938923548
0	22955	418.769013048937	4.9716083726209
0	22984	419.386332287586	1.6199073953835
0	22997	419.615470009685	4.3641875760986
0	23066	424.439406284228	0.20729958753336
0	23161	428.620923580917	0.23914764164477
0	23164	428.632331430854	87.658937093538
0	23175	428.969442309725	2.9663830587403
0	23182	429.038977225894	14.381264192072
0	23193	429.279536547218	4.1569788046298
0	23210	429.906787161436	1.594259100482
0	23217	429.991146914249	11.853993956297
0	23220	430.000507925446	106.82606600454
0	23225	430.044412231639	22.776809081188
0	23236	430.478309242238	2.3046943757909
0	23243	430.68079356861	4.9386538598687
0	23266	431.822808364464	0.87564539761694
0	23309	432.493398094422	1.4912247464074
0	23340	433.167232575076	1.4840439732758
0	23349	433.220746000845	18.686899327221
0	23354	433.224369450217	275.98012207027
0	23363	433.288186592736	15.669770856667
0	23394	434.400921703499	0.89868648012221
0	23399	434.418556260441	56.706840057791
0	23404	434.426684688077	123.02502338473
0	23413	434.549258132869	8.1583739585433
0	23420	434.753380831885	4.8990141949946
0	23435	435.195346798613	2.2626176567469
0	23462	435.797224187734	1.661467963534
0	23489	436.285210114937	2.049239423218
0	23516	437.515021022347	0.8131331361388
0	23557	438.296864508383	1.2790283705887
0	23606	439.349423310376	0.95006568574271
0	23677	441.492473903405	0.46662454132107
0	23708	442.551469785006	0.94429073556754
0	23731	444.273547829695	0.58069377464283
0	23738	444.313901656947	24.780796967664
0	23757	444.991234950864	1.4763780386714
0	23764	445.492712026543	1.9941090998945
0	23791	445.925270876693	2.3118241590785
0	23798	445.948894914245	42.329766780926
0	23873	448.019767213002	0.48288829813419
0	23880	448.158407853786	7.2128922251448
0	23899	448.727380009848	1.7575552500165
0	23914	448.956862595045	4.3576291383573
0	23919	449.011500086372	18.302450857692
0	23924	449.018601090335	140.8251572891
0	23941	449.474304889322	2.194407863667
0	23948	449.503088775905	34.741659960216
0	23971	450.285290281027	1.2784429503802
0	23980	450.340344101637	18.164043638024
0	24015	450.952174679263	1.6344393964096
0	24034	451.234891671565	3.5371061069148
0	24041	451.419370171782	5.420685873008
0	24048	451.464612846527	22.103025641969
0	24051	451.473315717803	114.90460657021
0	24068	451.594670451546	8.2403048414886
0	24075	451.646067731536	19.456282515234
0	24130	452.624053190142	1.0225100907179
0	24155	453.786150300819	0.86051328310887
0	24164	453.867679741327	12.265507941292
0	24221	455.07256510492	0.82995447551788
0	24228	455.148530017232	13.16397228095
0	24251	456.394309346555	0.80271038093354
0	24254	456.412396117932	55.289027497282
0	24269	457.252800826664	1.1899028998883
0	24284	458.385394266308	0.88292935928918
0	24303	458.959837487833	1.7408160850871
0	24336	460.747491368114	0.5593924030992
0	24339	460.809273489107	16.185912427858
0	24374	461.885948143812	0.92878567878427
0	24377	461.890839487746	204.44278985351
0	24406	462.368680327027	2.092747035822
0	24443	463.351746438519	1.0172255846377
0	24446	463.38721333861	28.195303154046
0	24481	464.943755946882	0.64244948688565
0	24538	466.838198010718	0.52785990085922
0	24551	466.993870703579	6.4237341926943
0	24558	467.112272877323	8.4457908869319
0	24561	467.119316616381	141.97005195192
0	24580	467.647469725305	1.8933903504559
0	24603	468.402154616562	1.3250563401825
0	24608	468.417118867599	66.825930514494
0	24621	468.598498314327	5.513303839214
0	24684	470.066740545947	0.68108652541389
0	24695	470.297123241133	4.3406037905436
0	24710	470.865281897142	1.7600717500714
0	24727	471.130857828299	3.7654014640688
0	24780	471.820421869664	1.4501916283519
0	24785	471.918549582838	10.190801025056
0	24788	471.921922913116	296.44295624468
0	24791	471.941109990363	52.118412154533
0	24866	474.415793798115	0.40409202859269
0	24879	474.65665549753	4.1517601280269
0	24882	474.666059040246	106.34289971358
0	24903	475.12854929942	2.1622077009492
0	24952	476.549692782888	0.70365871682408
0	24955	476.556183380783	154.06901123398
0	24962	476.734674933564	5.6025060257442
0	24977	477.093020222528	2.790604567151
0	24994	477.916165016207	1.2148530947156
0	25009	478.430868936242	1.9428645500349
0	25016	478.461494234429	32.652743293924
0	25019	478.57416600035	8.875337950247
0	25038	479.633676961159	0.94383167044958
0	25049	479.793284917128	6.2653518361843
0	25052	479.817261952512	41.706573977336
0	25071	480.179454558118	2.7609619426848
0	25082	480.26987203218	11.059809073126
0	25109	480.441132200287	5.8390693589371
0	25128	481.03846683676	1.6741034906406
0	25131	481.046108155592	130.86746175441
0	25142	481.140868177877	10.55297345744
0	25147	481.27938949251	7.2191056130922
0	25152	481.288511980354	109.61921978967
0	25207	482.193287739132	1.1052462339957
0	25220	482.310801949655	8.5096091404561
0	25229	482.583199845553	3.6711003097265
0	25236	482.670326233038	11.477579053443
0	25239	482.67325848137	341.03523534718
0	25246	482.889430486606	4.6259458939111
0	25261	483.121332082084	4.3121738681391
0	25300	484.228838654413	0.90292917891862
0	25347	484.997394600154	1.3011414530608
0	25350	485.209978069734	4.7040346174408
0	25357	485.334077475551	8.0580563091061
0	25364	485.987706751693	1.5299192317432
0	25379	486.465126695381	2.0945920111237
0	25462	489.102818360376	0.3791193691329
0	25477	489.6815009042	1.7280631853726
0	25512	490.428701199383	1.3383292357441
0	25535	490.733572677261	3.280070693921
0	25568	491.394193060723	1.5137286481526
0	25571	491.400351822697	162.37029523492
0	25576	491.46431698674	15.633509504138
0	25647	492.899129038555	0.69695539477455
0	25722	494.187370009272	0.77625228721256
0	25733	494.409677842459	4.4982670455828
0	25740	494.530789002609	8.2568773906671
0	25743	494.533403412896	382.49543500209
0	25746	494.560921495277	36.339741489053
0	25773	495.598329186133	0.96394118610675
0	25818	496.716674951367	0.89417783934717
0	25863	497.873909139218	0.86412932706129
0	25870	497.940912359347	14.924655831089
0	25933	499.16495592596	0.81696438531764
1	1353	10.09160133786	6.0446303770592
1	1384	10.569655564482	5.8658486666626
1	1393	10.710194338956	5.8822462045204
1	1432	11.014539261818	5.8105017812099
1	1461	11.460454582226	5.6716772911267
1	1464	11.464539507893	5.7568819013237
1	1467	11.472406414278	5.8400999389819
1	1472	11.535616943393	5.8947865843402
1	1505	11.96975785625	5.7645276394603
1	1570	12.795687952914	5.4705929261161
1	1577	12.849082540219	5.5256863498045
1	1592	12.969472912808	5.5514977735831
1	1605	13.123528656569	5.56252833444
1	1658	13.6552585075	5.4191577522576
1	1695	14.005259775195	5.3551309439354
1	1732	14.247417746056	5.3342999661141
1	1737	14.308726324942	5.3813315211556
1	1748	14.395199361424	5.4184730646401
1	1805	15.529658023588	5.0870405439712
1	1828	15.676273377493	5.1032536926065
1	1835	15.696473532759	5.1603947747213
1	1838	15.722028274613	5.2156120423984
1	1877	16.208931036995	5.1206337919856
1	1884	16.23536602814	5.1738901269246
1	1915	16.932925807409	5.0198058484853
1	1922	17.024682084945	5.0514893359477
1	1933	17.074266794689	5.0953871721778
1	1944	17.324491018332	5.0795143076286
1	1951	17.401764976217	5.1144237450417
1	1954	17.410784302135	5.1692099814805
1	1957	17.428135911531	5.2214419523657
1	1984	17.781817632777	5.1738242906292
1	1991	17.913392385231	5.1916464508797
1	2064	18.943667385699	4.9620803662844
1	2077	19.305493477961	4.9208791325874
1	2092	19.614803615285	4.894262613223
1	2101	19.699766583142	4.9239162093934
1	2128	20.025844024095	4.893676385479
1	2157	20.39091261106	4.8551039322439
1	2162	20.410465183896	4.8994473716797
1	2187	20.846520834873	4.8449331569536
1	2194	20.916166705593	4.8766105871935
1	2201	20.937787569697	4.9193354196157
1	2228	21.337639222006	4.8740162357203
1	2259	21.724423098993	4.8332698880675
1	2306	22.320317477636	4.7490363927936
1	2371	23.352090247625	4.5820309387885
1	2436	23.993443852013	4.5012296136446
1	2445	24.020999364417	4.537696302572
1	2448	24.051299737109	4.5735574044791
1	2455	24.073960384348	4.6107910052128
1	2492	24.58822218555	4.5550263518369
1	2529	24.874681517641	4.5427717303581
1	2554	25.434260639235	4.4821432640406
1	2559	25.464547986912	4.5160825182959
1	2592	26.311781227415	4.4086714995614
1	2629	26.788317576063	4.3675755174915
1	2650	27.065157353213	4.3598490287732
1	2653	27.070227010774	4.3959734786353
1	2668	27.209523673526	4.4102205330686
1	2683	27.451503739935	4.4077731094918
1	2732	28.096535958108	4.3421722941897
1	2763	28.856300151741	4.2625007139933
1	2766	28.867924766571	4.2954248011479
1	2769	28.930767198674	4.3206597025788
1	2804	29.325280875866	4.2966340385062
1	2815	29.460317480829	4.3108836176882
1	2818	29.464433466731	4.34422063959
1	2829	29.518932208044	4.3700767727922
1	2846	29.685983993801	4.3791709928546
1	2877	30.137561061697	4.3467352826534
1	2898	30.237098636599	4.3654982108709
1	2909	30.350029185179	4.3822033642376
1	2936	30.702058845855	4.3645281468832
1	2939	30.712072204724	4.3956656229544
1	2972	31.146412334852	4.3664740111277
1	2987	31.383892324101	4.3652966491601
1	2998	31.524817035811	4.3775035979824
1	3015	31.597553219393	4.3990747965475
1	3026	31.72850469921	4.412436114693
1	3031	31.738880450135	4.4425007435762
1	3060	31.968500362481	4.4418724178459
1	3065	31.980002515192	4.4715443637651
1	3182	33.702769499079	4.2726459024068
1	3193	33.760371513551	4.2949764324068
1	3204	34.054899471459	4.2871951544699
1	3211	34.101417643898	4.3106712317663
1	3238	34.397030410698	4.3026970128785
1	3247	34.444755583635	4.3257673766392
1	3258	34.673910700432	4.3260191011028
1	3261	34.677764642234	4.354375247593
1	3312	35.344486557212	4.3005292990735
1	3321	35.414483990905	4.3202662514945
1	3326	35.456805927401	4.3433128273122
1	3331	35.466671613933	4.3703001422639
1	3370	35.847139235355	4.3518117017868
1	3379	35.90196112755	4.3730201657291
1	3408	36.306796580793	4.3518022761497
1	3411	36.315990962591	4.3782365780349
1	3422	36.410398377263	4.3943490632037
1	3429	36.4844524339	4.4128385999951
1	3440	36.591212637014	4.4272924651895
1	3443	36.611288511194	4.4521787303433
1	3464	37.037579237897	4.4279351775829
1	3467	37.062421989187	4.4519486623982
1	3500	37.909978162212	4.3787943978682
1	3527	38.227855433256	4.3685422084839
1	3530	38.237010070489	4.3936489722992
1	3553	38.490105401464	4.3907388207249
1	3596	39.060755510789	4.3521943643165
1	3625	39.534672449806	4.3253172317819
1	3638	39.725210061421	4.3297442539401
1	3665	39.864910627565	4.3396560352597
1	3678	39.987302954471	4.3513812421436
1	3709	40.70761471429	4.29894999322
1	3714	40.727515565742	4.3214028048409
1	3731	40.903624648252	4.3272448718689
1	3766	41.731294718167	4.265384076917
1	3779	41.931179443773	4.2688997155453
1	3784	41.938335475211	4.2920158361172
1	3793	42.017199472624	4.307759733438
1	3804	42.04337252619	4.3288630065684
1	3845	42.849468516996	4.2707647570334
1	3852	42.926419886625	4.2864045146549
1	3859	42.97899301742	4.3044284431005
1	3884	43.208860148049	4.3046726843221
1	3925	43.518868105854	4.2969867585974
1	3930	43.540721951546	4.3177970316894
1	3961	44.065287011657	4.2890904114616
1	3976	44.629451493907	4.2572784033866
1	3983	44.645800645875	4.2781179245723
1	3998	44.825831431701	4.2832445906227
1	4001	44.832813052649	4.3048826709435
1	4014	45.055886208973	4.3057637153159
1	4031	45.18913460455	4.3151965999448
1	4034	45.217084173614	4.3346448268855
1	4041	45.291259233449	4.3496251447677
1	4062	45.487104271812	4.3528820567877
1	4107	45.815847593808	4.3434752482216
1	4130	45.953634979364	4.3522128356073
1	4143	46.072441532607	4.3626947761765
1	4162	46.346858891778	4.3584399208516
1	4167	46.395882265621	4.3753882906635
1	4182	46.526205434106	4.3846257844715
1	4201	46.681529941423	4.3914584688471
1	4204	46.690945799276	4.4119903007661
1	4213	46.716019318732	4.4310282215548
1	4216	46.721048099854	4.4519549209481
1	4229	46.77060942297	4.4686182749921
1	4238	46.84731554796	4.4826474589566
1	4267	47.193159254515	4.4709869678795
1	4270	47.198404230923	4.4916772813498
1	4293	47.577615830563	4.476895201276
1	4318	47.838815915465	4.4733548668545
1	4329	47.970495904172	4.4819215634021
1	4334	47.984136458888	4.5014876986494
1	4377	48.398219230888	4.4836360396812
1	4398	48.641814089708	4.4817407426037
1	4413	48.78822052893	4.4887884334732
1	4420	48.820794489553	4.5062765221299
1	4423	48.830164704781	4.5258909392612
1	4430	48.909968224723	4.5389520389789
1	4453	49.072664446785	4.5442814755213
1	4468	49.170650501631	4.5555630790886
1	4473	49.238332297087	4.5696104945722
1	4480	49.355721699187	4.5790030460384
1	4511	50.100573164945	4.5308862885192
1	4518	50.172472076803	4.5443246179096
1	4557	50.434654164417	4.5405288049257
1	4566	50.551624332488	4.5498043443124
1	4585	50.812764848412	4.5461017657499
1	4628	51.214955842627	4.5299267798431
1	4637	51.343251844091	4.5380842005787
1	4700	52.445675840555	4.461759644616
1	4721	52.785955518977	4.451941765372
1	4750	53.106412838357	4.4439077577754
1	4759	53.164949762432	4.4578242067196
1	4768	53.256625141684	4.4689275628492
1	4803	53.649396089802	4.4548497731446
1	4814	53.678581575276	4.4710570390806
1	4827	53.973068586295	4.4651898865946
1	4858	54.620213376166	4.4305941892493
1	4865	54.809966172451	4.4335002732065
1	4870	54.83486141859	4.4497240202248
1	4873	54.857208002577	4.4661405295817
1	4880	54.912890585124	4.4798224493147
1	4909	55.207009305357	4.4740695630479
1	4932	55.465820895591	4.471222024584
1	4937	55.489824080709	4.487309234173
1	4980	55.878707753206	4.4739760465498
1	5007	56.196952658988	4.4664343549571
1	5084	57.098976575704	4.4133890852823
1	5093	57.213479291038	4.4220348619775
1	5108	57.536337535307	4.4146014654501
1	5143	58.48669573709	4.3599659168006
1	5170	58.956252788768	4.3422026993
1	5179	59.028496162044	4.3538293656421
1	5194	59.115002730909	4.3643743226134
1	5209	59.234132400325	4.3724789999385
1	5216	59.260517865582	4.3874068159469
1	5279	59.885070678319	4.3583483670245
1	5310	60.305364077253	4.3445554804108
1	5319	60.385371808537	4.355359454172
1	5338	60.608181586161	4.355847562011
1	5347	60.63752124891	4.3702314102222
1	5358	60.802722727169	4.3748040888495
1	5363	60.810217023918	4.3907095397305
1	5366	60.819539979377	4.406478577294
1	5375	60.976085732415	4.411565563268
1	5378	60.997550980788	4.4264072189561
1	5383	61.003201729983	4.4423897814335
1	5480	61.747320389774	4.4050494545031
1	5495	61.825173752164	4.4156770362565
1	5548	62.192905881462	4.4056471733647
1	5575	62.342338579817	4.4111274338533
1	5582	62.357341297675	4.4261027532021
1	5585	62.394367833594	4.4395032695701
1	5596	62.445903333133	4.4518532867871
1	5609	62.568045632502	4.4591451943174
1	5614	62.606772424867	4.4723596051213
1	5619	62.639572646418	4.4859820737629
1	5626	62.683359756581	4.4988016133005
1	5655	62.875339714388	4.5009697169913
1	5686	63.257071067655	4.4896166579742
1	5711	63.508112041048	4.4876156894066
1	5714	63.513298769049	4.5029939484008
1	5735	63.701849032706	4.5053637273958
1	5746	63.875963400806	4.5087382587542
1	5749	63.887824280784	4.5235536387944
1	5752	63.903612290996	4.5380846184318
1	5767	64.200448419519	4.5326786208479
1	5774	64.223106976295	4.5466501660809
1	5777	64.243908158352	4.5607437093926
1	5792	64.426381662753	4.5633480014286
1	5799	64.503916345307	4.5733657228002
1	5846	64.91399320746	4.5598797019621
1	5853	65.028658610989	4.5672170754236
1	5866	65.159076522581	4.5734227049201
1	5883	65.441560832041	4.5689619287565
1	5892	65.672812202627	4.5681004046907
1	5899	65.737470880753	4.5788192938851
1	5912	65.778400535241	4.5911727488449
1	5921	65.848531375465	4.6014693672105
1	6004	67.967000043317	4.4727588359977
1	6029	68.344941853303	4.4626565145766
1	6032	68.354454163567	4.4766651090178
1	6085	69.056249636034	4.4456512135841
1	6126	69.394495142146	4.438392402295
1	6143	69.704213456883	4.4330175275723
1	6190	70.343231593867	4.4069627308255
1	6193	70.349910327574	4.4207590109479
1	6212	70.435817489091	4.4295645471613
1	6217	70.440737736034	4.4434514750956
1	6238	70.49768077762	4.4540472329933
1	6245	70.534248961666	4.4659155606973
1	6248	70.544775780533	4.4794245428334
1	6307	70.956240547308	4.467542214115
1	6348	71.585118215296	4.4422640896338
1	6359	71.788756255194	4.4435927941978
1	6362	71.810935141716	4.4561458414167
1	6415	72.804290060018	4.4090808348708
1	6472	73.700817967168	4.3690152820752
1	6487	74.026042841313	4.3633292771357
1	6502	74.181298698614	4.3676776449595
1	6509	74.228397320352	4.378378245153
1	6522	74.387068522691	4.382482150114
1	6539	74.558104079253	4.3858411374357
1	6564	74.797605834743	4.3851670964533
1	6605	75.23481139921	4.3729756728473
1	6616	75.473875399385	4.3723738612035
1	6623	75.493534272192	4.3844814419018
1	6650	75.749287399323	4.3828795147579
1	6699	76.378403200287	4.3598711945676
1	6702	76.386273793712	4.3725133248677
1	6705	76.393132057764	4.3852109604132
1	6722	76.473766259747	4.3936635585432
1	6739	76.779891367276	4.3891700547994
1	6754	77.109887299993	4.3833548697202
1	6767	77.28561348089	4.3863273477647
1	6776	77.349773866858	4.3956172462151
1	6781	77.360874534697	4.4079129411478
1	6788	77.384100213563	4.419512523324
1	6791	77.386860757218	4.4322769607631
1	6794	77.389158392758	4.4450670758579
1	6803	77.469784182891	4.4533491817342
1	6812	77.490149761157	4.4650836405202
1	6845	77.778023661901	4.4614144672588
1	6868	78.167709016728	4.4519662195233
1	6881	78.309226838472	4.4566906620069
1	6890	78.328657568914	4.4683518250274
1	6893	78.333588128999	4.4808364889653
1	6926	78.76487595668	4.4689970716592
1	6933	78.82393572962	4.4783351241284
1	6984	79.808388329162	4.4356239664929
1	6987	79.829713934542	4.4469657036613
1	7022	80.244239873717	4.4364555083362
1	7129	81.625384378655	4.3736394348099
1	7148	81.828123683995	4.3750239389886
1	7207	82.501115187584	4.3514563310294
1	7248	83.315853196321	4.3209063604224
1	7269	83.622751120627	4.3170069767168
1	7272	83.631142156173	4.3285311029712
1	7295	84.310755401767	4.3055005054835
1	7306	84.447258946672	4.3103826523234
1	7309	84.455790356824	4.3217877478605
1	7312	84.46761112219	4.3330217954258
1	7315	84.488964797773	4.3437625360711
1	7326	84.697760162275	4.3448610600202
1	7353	85.417791850523	4.31994309389
1	7356	85.428817290147	4.3310912141432
1	7359	85.437885219695	4.3423359443649
1	7374	85.864456334035	4.3324096591589
1	7381	85.881259558203	4.3432059790322
1	7388	85.970748044664	4.3503169218174
1	7443	86.952663630027	4.3126913465881
1	7456	87.205080844483	4.3116753789901
1	7481	87.576730600155	4.304796461531
1	7518	88.242152528487	4.2836670363177
1	7521	88.269008496328	4.2936927292637
1	7546	88.765774791835	4.280929230789
1	7561	89.064541974166	4.277796657962
1	7564	89.110371733845	4.2868186112045
1	7587	89.605289604117	4.2743012348057
1	7590	89.611469821196	4.2851657356609
1	7629	90.227748828506	4.2669800033664
1	7634	90.243544142087	4.2773142795927
1	7663	90.665479731461	4.2684382319075
1	7670	90.815467145981	4.2723999797998
1	7681	91.332834243628	4.2591473616416
1	7712	92.523933716245	4.2151255824905
1	7755	94.532565431255	4.1361407914433
1	7764	94.663389725054	4.1409884131399
1	7809	96.164969114311	4.0867272523412
1	7832	96.387699583376	4.087658505214
1	7841	96.453061492349	4.0952562198488
1	7850	96.542673997689	4.1018130491132
1	7853	96.570393862056	4.1109907925517
1	7864	96.787653906961	4.1120947138835
1	7867	96.799741331413	4.1219118410032
1	7870	96.835739798782	4.1307062953324
1	7877	96.842352910754	4.1407502807118
1	7884	96.98642844167	4.1449098235613
1	7909	97.266462531475	4.1432574960726
1	7932	97.558516954325	4.1411043608745
1	7937	97.716756741982	4.1446320314272
1	7954	98.006650079762	4.1425760361116
1	7975	98.213827743567	4.1440193234568
1	7986	98.951342517272	4.1232386506407
1	8003	99.222596683986	4.1220449138478
1	8008	99.263487608124	4.1304210629654
1	8031	100.632023511447	4.0841869780473
1	8036	100.667653479458	4.0926751122104
1	8045	100.946993686751	4.0912560633711
1	8048	101.013400808115	4.0984661113077
1	8051	101.016599732359	4.1082356870013
1	8062	101.773725424663	4.0874989911609
1	8069	101.910010259497	4.0918453343119
1	8112	103.331771279352	4.0452224405402
1	8135	103.929924676817	4.0315626255184
1	8176	104.768381625339	4.0088430639499
1	8281	106.704414136321	3.9454787640008
1	8308	107.03460503947	3.9426501349202
1	8353	108.317206386926	3.9051967282924
1	8382	108.656047232544	3.9022218348562
1	8403	109.558273366168	3.8792141108281
1	8410	109.703128128884	3.8832074095418
1	8419	110.331127660602	3.8701680029368
1	8424	110.342511232721	3.8788314242488
1	8455	110.735148334672	3.8741086859201
1	8502	111.578862549011	3.8537765144462
1	8507	111.594039587322	3.8622134443188
1	8516	111.641051716643	3.8695443419546
1	8587	113.069236180368	3.8295120284467
1	8618	113.597310175766	3.8205129974335
1	8635	113.938752957081	3.8178406267432
1	8670	114.626905126866	3.8036445240971
1	8677	114.784759692508	3.8071256251323
1	8684	114.815700764367	3.8148092733318
1	8713	115.209580097991	3.8104470099328
1	8726	115.527052239903	3.8086317574026
1	8777	116.671936005786	3.7798292811232
1	8784	116.732501473271	3.7864347497188
1	8841	118.59686494131	3.7353432590248
1	8874	119.302476404544	3.7216327219767
1	8881	119.385740816057	3.7274133155117
1	8904	119.896683374411	3.7198693695908
1	8911	120.023434095609	3.7242727086439
1	8936	120.153003480616	3.728579286595
1	8965	120.503356010767	3.7260373060472
1	8988	120.957005295148	3.7203302024711
1	9029	121.304187487546	3.7179260612607
1	9038	121.396184064347	3.7233460300565
1	9079	121.716853037347	3.7217524828793
1	9110	121.997912938369	3.7213751372071
1	9117	122.035481096121	3.7284238642172
1	9130	122.32366323603	3.7278151090041
1	9135	122.333636951021	3.7356855513334
1	9138	122.338576437558	3.7437087575869
1	9155	122.509065904866	3.7466614948843
1	9176	122.718620618004	3.7484124062303
1	9215	123.069272810413	3.7458578365874
1	9234	123.540883230038	3.7396527199805
1	9263	123.905827117037	3.7367088439083
1	9330	125.267405611133	3.7040760741896
1	9345	125.384453839492	3.7085937351951
1	9362	125.590549363151	3.7104702731456
1	9385	125.925158044784	3.7085520260687
1	9388	125.936201752614	3.7161673409789
1	9391	126.004169266034	3.7220990601493
1	9400	126.108289361907	3.7269556377154
1	9433	126.605940191038	3.720204591422
1	9436	126.610686343929	3.7279633625699
1	9443	126.648314786445	3.7347516293255
1	9486	126.917769326768	3.7347016301525
1	9529	127.338032186266	3.7302288392928
1	9536	127.373040716805	3.7370545393378
1	9611	128.574385973478	3.7099146644838
1	9614	128.577932585472	3.7175897168999
1	9623	128.653183282127	3.7231880920473
1	9650	128.815442834884	3.7262613040524
1	9653	128.819378817872	3.7339102580214
1	9668	129.322481380391	3.727116854356
1	9683	129.488162229575	3.7300707005453
1	9804	132.435133420042	3.6546193408127
1	9829	133.138431185681	3.6428249580589
1	9834	133.14445850419	3.650170690241
1	9839	133.16829278167	3.6570266827588
1	9866	133.454748765077	3.6566701785864
1	9885	133.739306611761	3.6563670949749
1	9896	133.844034724241	3.6609775027296
1	9911	134.063743485012	3.6624368918573
1	9928	134.152512677529	3.6674676469359
1	9943	134.214337270527	3.673229030713
1	9964	134.621038417327	3.6695601653925
1	9971	134.681709522985	3.6753320235776
1	9994	135.019669416267	3.6735388417433
1	10013	135.661194256239	3.6635384401914
1	10032	135.952392694658	3.6630469690848
1	10045	136.000221408423	3.6691116737336
1	10048	136.001327846141	3.676434693091
1	10057	136.024007944283	3.6831733424971
1	10092	136.220108890153	3.6852121473843
1	10099	136.358899784168	3.6887947966444
1	10114	136.472973784299	3.6930388927891
1	10117	136.484465512894	3.7000547872043
1	10166	136.959026559324	3.6945356046381
1	10217	138.298902903813	3.6659726820293
1	10252	139.281451459164	3.6472911121905
1	10259	139.331477072535	3.6531587168563
1	10312	140.386311395807	3.6328328234375
1	10333	140.735254607925	3.6309310088904
1	10336	140.738307394453	3.6379576355498
1	10339	140.753744385445	3.6446632538257
1	10356	140.984886960311	3.64578084277
1	10371	141.124859468337	3.6492507552544
1	10376	141.143941531279	3.655842357822
1	10385	141.179560812867	3.6620031754121
1	10396	141.223473197303	3.6679454786975
1	10411	141.790975316785	3.6603175825575
1	10454	142.561437123233	3.647550210584
1	10475	142.979347069154	3.6438829151179
1	10478	142.982032919385	3.6508083522236
1	10487	143.060677884935	3.6557914287297
1	10534	143.913094945226	3.641086311148
1	10537	143.923427751354	3.6477730429476
1	10586	144.886150006804	3.6304367254931
1	10611	145.370953601667	3.6252083854663
1	10614	145.38842937065	3.6316507598684
1	10619	145.401336459334	3.6382058988017
1	10622	145.402089372123	3.6450645399158
1	10639	145.535767490805	3.6485876232009
1	10644	145.617843414248	3.6533984265004
1	10715	146.916059864328	3.6279219609633
1	10726	147.032710912023	3.6318448914372
1	10739	147.188994038559	3.6347826377551
1	10742	147.204023127672	3.6412048299463
1	10749	147.57125562325	3.6389200439614
1	10768	148.149524146356	3.6314662709852
1	10771	148.154129706971	3.6381031096877
1	10796	148.508818095369	3.636147717863
1	10837	148.753215163048	3.6368961800726
1	10858	148.898803627774	3.6400561105576
1	10873	149.1027853843	3.6417830733374
1	10882	149.153042463225	3.6472604984516
1	10897	149.366611004916	3.6487404804415
1	10900	149.374149776707	3.6552509307413
1	10905	149.585742659727	3.6567656133132
1	10916	149.677608000848	3.6612022821536
1	10919	149.6822469659	3.6677696328615
1	10930	149.891336677303	3.6693248068371
1	10941	149.923468060567	3.6752084722147
1	10944	149.929318448815	3.6817348715452
1	10951	149.980716773658	3.6871406664535
1	10988	150.799916385399	3.673742090043
1	10993	150.856850486821	3.6789844028229
1	11002	150.93618115793	3.6836760790856
1	11021	151.542268427023	3.6755421822673
1	11048	151.88576137753	3.6738137593624
1	11057	151.939440227349	3.6790974033046
1	11082	152.843209433787	3.6638853768809
1	11099	153.217170154055	3.6614695300529
1	11116	153.656217738694	3.6575155126864
1	11135	153.971368614544	3.6565239697871
1	11204	155.036970542637	3.6378419806964
1	11207	155.0580453129	3.6437967398587
1	11224	155.128952741444	3.6485774576417
1	11263	155.641049969874	3.6429977831025
1	11326	156.498688921016	3.6294233767458
1	11349	157.180219249227	3.6200483923348
1	11398	158.605125756688	3.5938308883814
1	11423	159.114795235924	3.5886040588077
1	11426	159.133668809339	3.5944624684379
1	11433	159.409107652886	3.594524857687
1	11452	160.060306101939	3.5861483335814
1	11503	162.330657740287	3.5421528379435
1	11514	162.55560363568	3.543402916401
1	11521	162.656533989705	3.547352115818
1	11562	163.106474846822	3.5436974561728
1	11585	163.435274174131	3.5426868705412
1	11592	163.751768948441	3.5419464701027
1	11601	163.808104111189	3.5468330651433
1	11626	164.047691051281	3.5477488056694
1	11667	164.646273571823	3.5409243546935
1	11706	165.809373514214	3.5221169203075
1	11737	166.849918981363	3.5061449449391
1	11746	167.177618526002	3.5052539040018
1	11781	168.167962286572	3.4905578447796
1	11784	168.172001810071	3.4964202939326
1	11789	168.179196112009	3.5022167641218
1	11800	168.208015105614	3.5075617510233
1	11813	168.263082850549	3.5123568996113
1	11826	168.345288262643	3.5165819376922
1	11833	168.47198334385	3.5198730864923
1	11874	169.252498947641	3.5095493637808
1	11879	169.263587282984	3.5152274009486
1	11884	169.293261886457	3.5205181432426
1	11913	169.828505242856	3.5153109258442
1	11924	169.894234071831	3.5198369342374
1	11939	170.029933427481	3.5229091015052
1	11990	173.054838336264	3.4671090722938
1	12001	173.781515032029	3.458365522301
1	12008	174.006366475768	3.4596435302488
1	12015	174.428052200794	3.4570127476161
1	12022	174.459566306527	3.4621202653844
1	12025	174.463973687258	3.4677646462674
1	12042	174.75151531525	3.4677810885175
1	12047	174.774357682603	3.4730495253905
1	12062	175.253516976553	3.4692599069572
1	12153	176.717438590276	3.446179419859
1	12156	176.730153085113	3.4515898354155
1	12175	176.850545650985	3.4548946272736
1	12190	177.217471385869	3.4533841117022
1	12213	177.539505351138	3.4527526636261
1	12228	177.800619158988	3.4533063096421
1	12251	179.171435018307	3.4324667876727
1	12304	179.848808666109	3.4250991405988
1	12317	179.904052228073	3.4296059058069
1	12336	180.100358629871	3.4314201520835
1	12341	180.162187562242	3.4357930949642
1	12344	180.167346675592	3.4412451059535
1	12417	181.838388947477	3.4151204462077
1	12444	182.376022876028	3.4105360463026
1	12467	182.94971089826	3.4053073762246
1	12470	182.955445558944	3.4106664499306
1	12485	183.233217084063	3.4109535920731
1	12496	183.323446643545	3.4147296020307
1	12519	183.74264545074	3.4123814777016
1	12590	185.021992222317	3.3941911037549
1	12599	185.046613700001	3.3991435315846
1	12646	185.820440702317	3.3903697441406
1	12651	185.872803334376	3.3947946589306
1	12656	185.890350743779	3.399853717373
1	12693	186.545972699329	3.3932654285722
1	12698	186.579554208766	3.3980143359685
1	12737	187.53684518002	3.3860012915886
1	12744	187.588379800971	3.3904019037575
1	12759	188.312627145299	3.382672790755
1	12768	188.353268356827	3.3872520799126
1	12771	188.358686619191	3.3924636631805
1	12798	189.047984611314	3.3853838818533
1	12823	189.411822155778	3.384160464244
1	12840	190.490619158283	3.3702447020058
1	12855	190.622131403958	3.3731655147501
1	12858	190.629383004377	3.3782829795195
1	12885	190.914731548326	3.378471607555
1	12904	191.307655869832	3.3767597907297
1	12917	191.565680008002	3.3774316984805
1	12934	191.960383364223	3.3756965298954
1	12961	193.044807945777	3.3619137800499
1	12980	193.94659977489	3.3514379770228
1	12993	194.069958564115	3.3544604472357
1	13030	195.008772678491	3.3434393286242
1	13037	195.109261797802	3.3468426561765
1	13040	195.141133889785	3.351420517877
1	13045	195.231877527995	3.3549848943397
1	13098	195.734770553857	3.3514740285733
1	13107	195.792433436799	3.3555944347159
1	13118	195.90081325836	3.3588426155853
1	13165	196.614182469922	3.3517419329646
1	13174	196.717582551695	3.3550635964457
1	13177	196.727596156004	3.3599759917558
1	13214	197.541029192506	3.351202546155
1	13283	198.979051753447	3.3320090439546
1	13286	198.999095830797	3.3366985775884
1	13299	199.322288266895	3.3363052661203
1	13304	199.339160793582	3.3410394492914
1	13307	199.347122471717	3.3459223876915
1	13340	199.748003745826	3.3442136465605
1	13345	199.764916330247	3.3489364012949
1	13356	199.949633293749	3.3508438548406
1	13377	200.142651258186	3.3526087307318
1	13410	200.447808882734	3.352493617893
1	13413	200.451029158212	3.3574285092286
1	13424	200.520328901164	3.3612552088532
1	13431	200.576444335362	3.3653004580708
1	13458	200.885118238995	3.3651074102749
1	13509	201.996789365414	3.3515384186394
1	13514	202.229481990104	3.3526268936058
1	13541	203.182954179456	3.3418157676765
1	13574	204.281948047195	3.3287326976288
1	13677	208.654364121954	3.2637706997682
1	13692	208.792472986741	3.2664012751231
1	13703	209.131317962888	3.2658905736978
1	13714	209.428514994107	3.266030893736
1	13717	209.459036508056	3.2703291842635
1	13740	209.816683904389	3.2695207417948
1	13769	210.241449361959	3.2676715371061
1	13774	210.253365455519	3.272242508506
1	13793	210.445244477714	3.2740107846579
1	13814	210.565896345072	3.2768839207905
1	13851	211.572195376566	3.2660246246919
1	13874	211.724740018803	3.26839461434
1	13877	211.729079901387	3.2730506377431
1	13888	211.813791465614	3.2764627609844
1	13951	212.904483856142	3.2643746501347
1	13996	213.843602313221	3.2547150930452
1	14023	214.589996213368	3.2480544866918
1	14048	214.773924220008	3.2499289778073
1	14055	214.821240588148	3.2538681840131
1	14086	215.174210636272	3.2531779618482
1	14151	216.536242009725	3.237333360429
1	14164	216.745883720624	3.238815833314
1	14229	218.330139895711	3.2198944238107
1	14254	218.652831109266	3.2197159141662
1	14287	218.972754328916	3.2195786282207
1	14300	219.018371713981	3.223473877899
1	14321	219.152947106324	3.2260574604867
1	14342	219.484207838538	3.2257446081079
1	14391	220.056000539185	3.2219071430127
1	14396	220.209924241844	3.2241961957184
1	14419	220.5080538331	3.2243720246978
1	14434	220.590622517752	3.2276984029215
1	14477	221.620425803911	3.2172124812668
1	14502	222.246273725582	3.2126522889721
1	14563	224.110813855948	3.190385986727
1	14602	225.56437373057	3.1742601376193
1	14605	225.571114448792	3.1785984732667
1	14610	225.59451693887	3.1827014669623
1	14679	226.704961872691	3.1715229965005
1	14702	227.830303398562	3.1602468559261
1	14721	228.389364621339	3.1568895565491
1	14732	228.424273137216	3.1607849292194
1	14737	228.445404509104	3.164869967744
1	14740	228.449915724046	3.1691847979255
1	14753	228.534618209124	3.1723858979499
1	14758	228.562994450822	3.1763672056555
1	14783	229.134209834603	3.1728130012746
1	14800	229.553499195843	3.1713740045361
1	14807	229.733905581306	3.1732364369786
1	14818	230.119637965355	3.1722629431127
1	14857	230.457522340261	3.1719511369245
1	14868	230.591841741578	3.1744401470211
1	14897	230.798700357798	3.1759277624339
1	14912	230.981137636135	3.1777486573656
1	14937	231.301469316808	3.1776711240571
1	14948	231.663388492254	3.177023373396
1	14951	231.684213322362	3.1810540279434
1	14962	231.927631943103	3.1820270565305
1	14989	232.437422519966	3.1793503472382
1	14992	232.446000458172	3.1835350943505
1	15021	232.781503999674	3.1832425998976
1	15050	233.36823088945	3.1795244672849
1	15053	233.372829714598	3.1837468008107
1	15060	233.594654669469	3.1850043874195
1	15063	233.603147122092	3.1891693634188
1	15078	233.72907404017	3.1917295829093
1	15081	233.739597555544	3.195864148874
1	15114	234.458799927476	3.1903259772351
1	15131	234.771483062671	3.1903363655119
1	15154	235.21573094551	3.1885622487288
1	15195	235.554596361022	3.1882205297704
1	15206	235.612890921308	3.1916759607655
1	15209	235.646243011297	3.1954678775163
1	15212	235.673657802873	3.1993393195886
1	15215	235.675967627438	3.2035510773569
1	15230	235.939685916112	3.204208724211
1	15281	237.053575320619	3.1933709456866
1	15288	237.330996053866	3.1938516780503
1	15303	238.114423087001	3.1875431574453
1	15310	238.191393402564	3.1907114238823
1	15325	238.487485266782	3.190943118666
1	15340	238.892383225524	3.1897207843611
1	15347	239.024068775523	3.1921471503213
1	15354	239.09924831114	3.1953258130105
1	15371	239.385693908543	3.1956796895819
1	15374	239.39330684985	3.1997552900693
1	15401	240.3706902145	3.190904844994
1	15422	240.701011794767	3.1906803975333
1	15491	242.320078167868	3.1734885768206
1	15498	242.583750063186	3.1741615000982
1	15525	242.913459891368	3.1739698588328
1	15562	243.586678061213	3.1693030429439
1	15565	243.596303564645	3.1732829631992
1	15568	243.605091819124	3.1772734889084
1	15607	244.366502474958	3.1714657784547
1	15618	244.426638988772	3.1747767068697
1	15631	244.52327363505	3.1776116377358
1	15646	244.623391439754	3.1803990428757
1	15685	245.943040606206	3.1674000536055
1	15748	247.780405651826	3.1479486763616
1	15767	248.612771062206	3.1414315389477
1	15794	250.0864652922	3.1269185203058
1	15815	250.816379535366	3.1218056868953
1	15836	251.233374409086	3.1206045050504
1	15851	251.331253438712	3.1233680223197
1	15872	252.869207722806	3.1083262651007
1	15875	252.897432399802	3.1119335318353
1	15890	253.321114178117	3.1106763546205
1	15917	253.758906338484	3.1092504747304
1	15924	254.013889486508	3.1100661526698
1	15927	254.028890990672	3.1138190499326
1	15934	254.261473219796	3.1149036854489
1	15949	254.709622311543	3.1133492044916
1	15990	256.50752362161	3.0954257746111
1	16001	256.698059009294	3.0970238071462
1	16004	256.774276712868	3.0999989959668
1	16015	256.922121605675	3.1021073429529
1	16036	257.430196216374	3.099869447053
1	16049	257.918560340161	3.097877093243
1	16064	258.237143093844	3.0979277048046
[...]
1	16178	262.154086820578	3.0897858958589
1	16211	262.680717193389	3.0873983011206
1	16230	263.097962141238	3.0863028865427
1	16277	264.674189507183	3.0717011035862
1	16284	265.025317425514	3.0714046790219
1	16305	265.399998018983	3.0708364961695
1	16310	265.431136772316	3.0742436999769
1	16313	265.438787019001	3.0779224437215
1	16370	267.224061779693	3.0611015885028
1	16373	267.229484539169	3.0647815730826
1	16396	267.5436219198	3.0649207561592
1	16399	267.54629363175	3.0686278208362
1	16410	267.684700039925	3.0707769247828
1	16447	268.358503413045	3.0667930754304
1	16450	268.375572017393	3.0703241498693
1	16453	268.385804859987	3.0739330659846
1	16468	268.464428980798	3.0767577035656
1	16497	269.00329573232	3.0743117765476
1	16508	269.36896128977	3.073850810559
1	16511	269.379625372683	3.077441357538
1	16522	269.443804517988	3.0804196870839
1	16557	270.113137715929	3.0764886411187
1	16564	270.219928875189	3.0789734993391
1	16573	270.289366862195	3.0818822422441
1	16596	271.506823097304	3.0717460080224
1	16599	271.512319300514	3.0753669010348
1	16614	271.826655152849	3.075489412655
1	16623	272.076547207788	3.0763401277684
1	16626	272.089736807767	3.079866259682
1	16669	273.636185169249	3.0661149565474
1	16674	273.646700576013	3.0696514821185
1	16695	273.906265721906	3.0703934347156
1	16706	273.998555234482	3.0730089042967
1	16729	274.39431974177	3.0722210313732
1	16736	274.439243756253	3.0753619214518
1	16739	274.458786337216	3.0787864774778
1	16742	274.474586547058	3.0822525707857
1	16745	274.484154275157	3.0857883298827
1	16748	274.494558065053	3.0893144329624
1	16753	274.52567173397	3.0926069486963
1	16774	274.715955564145	3.094104957444
1	16787	275.096909983601	3.0934553210748
1	16816	275.646154274687	3.0909192339065
1	16823	275.693154520203	3.0940195141388
1	16830	275.798494812142	3.0964635995628
1	16861	276.814096634253	3.0887155329004
1	16884	277.119044122205	3.08892520437
1	16891	277.170980060372	3.091954286893
1	16954	278.149006571998	3.0846775639226
1	16977	278.787183363102	3.0812033381076
1	16980	278.790833623713	3.0847499138395
1	17015	279.40933141069	3.0815005198751
1	17078	280.929638198584	3.0683839751741
1	17101	281.314002898433	3.0677463301092
1	17108	281.338630860576	3.0710322196321
1	17139	281.854065591504	3.0689640689933
1	17162	282.282798563895	3.0678454528783
1	17177	282.607979139609	3.0678539319362
1	17206	282.950786206855	3.0676712782322
1	17209	282.957801901001	3.0711293138474
1	17252	284.841555473127	3.0543296203916
1	17289	285.715596236147	3.0484860171235
1	17296	285.808738728461	3.0509913863357
1	17301	285.858233370209	3.0539613629718
1	17304	285.862092108525	3.0574183290738
1	17361	287.306157124945	3.0455316682248
1	17372	287.908622992683	3.0426320368399
1	17375	287.920240703533	3.0459824493653
1	17398	288.364758774349	3.0447548574653
1	17409	288.822194053509	3.043394926351
1	17430	289.047765806089	3.0444795085888
1	17437	289.089657338372	3.0474974722766
1	17442	289.141985433074	3.0504044532964
1	17455	289.56773751148	3.0493728603484
1	17490	290.500259155827	3.0430265452046
1	17495	290.513801158925	3.0463268749007
1	17538	291.52915769607	3.0391471199724
1	17553	291.915610687418	3.0385493873084
1	17556	291.940818185934	3.0417123769052
1	17609	293.311626524589	3.0309061067018
1	17628	293.612968092739	3.0312012639676
1	17645	294.311932983342	3.0274001837718
1	17658	294.787426145195	3.0259092515047
1	17669	294.948368918779	3.027648544976
1	17688	295.351660271513	3.0269002015366
1	17711	296.04950633352	3.0231430245714
1	17762	297.982808753982	3.0068848728107
1	17777	298.38064945614	3.0062271183971
1	17804	299.103799657939	3.0023022142379
1	17823	299.414729721347	3.0025242941009
1	17834	299.639856499817	3.003605763643
1	17879	300.076133138682	3.0025713493968
1	17882	300.08750780335	3.0057898997618
1	17897	300.135642521897	3.0086396684263
1	17902	300.194839540214	3.0113775486101
1	17923	300.521502086977	3.0114317734845
1	17948	301.236980868203	3.0075988591732
1	17961	301.346478407374	3.0098244545399
1	17986	301.967844128641	3.006942684974
1	17997	302.128086597906	3.008657719432
1	18018	302.986270186775	3.0034364244922
1	18031	303.286224972176	3.003763194598
1	18044	303.516904634477	3.0047749765316
1	18057	303.630670851837	3.0069426037843
1	18060	303.633894537261	3.0102041189866
1	18087	305.041658538082	2.9995902998468
1	18138	306.698274269198	2.9866486930279
1	18149	307.026106486214	2.9867167013733
1	18152	307.030359440921	2.9899323365664
1	18169	307.316154665693	2.9904057630804
1	18184	307.510445628569	2.9917682897551
1	18227	309.230329823286	2.9783624411173
1	18230	309.24891101907	2.9814171275874
1	18233	309.255689545447	2.9845853486371
1	18236	309.260928140414	2.9877683079981
1	18267	310.147259325214	2.9824542122749
1	18274	310.818897962346	2.9792268297412
1	18281	310.918752251984	2.9814862991883
1	18304	311.360897779677	2.9804641707343
1	18355	313.235632283246	2.9658183943771
1	18360	313.247820778517	2.9688953547663
1	18369	313.321178993385	2.971391857362
1	18372	313.3322022648	2.9744788223598
1	18383	313.39599282374	2.9770642298057
1	18392	313.434167782873	2.9798920985762
1	18395	313.439234485966	2.9830343400799
1	18400	313.522250404346	2.9854340442914
1	18423	313.833515710866	2.9856594439176
1	18446	314.030587748782	2.9869701761358
1	18481	314.853220142765	2.9823420563214
1	18506	315.728484414126	2.9772416693549
1	18513	315.811188585764	2.9796284425954
1	18546	316.760774063783	2.9738530687209
1	18553	316.82760106296	2.9763820981386
1	18560	316.853712989077	2.9792928449368
1	18565	316.925352575931	2.9817747059967
1	18596	317.522158469053	2.9793196309863
1	18607	317.71865459389	2.9806244811481
1	18622	317.971058069265	2.9814034200355
1	18637	318.607691692544	2.9785847132523
1	18668	319.449297414658	2.973867864755
1	18727	320.90086228346	2.9635320803842
1	18750	321.311342711001	2.9628583664918
1	18765	321.490965207224	2.9643134742083
1	18768	321.503493670435	2.9673083458867
1	18777	321.678621446146	2.9688015812387
1	18822	322.382498547961	2.9654215235191
1	18875	323.365397712117	2.9595003261666
1	18906	324.168217392125	2.9552557857366
1	18909	324.195773053494	2.9580891538699
1	18928	324.44770722051	2.9588743536645
1	18931	324.462605964611	2.9618205066898
1	18970	325.283332293977	2.9574217443474
1	18981	325.401689190888	2.9594191793979
1	19024	326.637129412495	2.9512872640471
1	19035	327.094678488794	2.950216140655
1	19052	327.602601224702	2.9486945353569
1	19063	327.766017647822	2.9502753425739
1	19116	329.280159843798	2.939745900449
1	19141	329.547000222076	2.9404000016599
1	19152	329.614820885633	2.9428288369853
1	19165	329.762293329902	2.9445452668192
1	19188	330.379992842446	2.9420667747987
1	19195	330.589631540707	2.9432260033848
1	19202	330.616610501891	2.9460104818128
1	19213	330.788764091695	2.9475003562386
1	19226	331.020163396061	2.948460873159
1	19229	331.022508665385	2.9514609261439
1	19240	331.107918968692	2.9537197510896
1	19247	331.129014713956	2.9565515448584
1	19258	331.377687157633	2.9573505941389
1	19273	331.571219364804	2.9586403846489
1	19286	331.683081113981	2.9606574948046
1	19353	333.044285777654	2.9515594231101
1	19366	333.123572545445	2.9538588112547
1	19369	333.14054825294	2.9567100287418
1	19382	333.200049100956	2.9591832373988
1	19453	334.455489393835	2.9510653324567
1	19472	334.918210798664	2.9499739582508
1	19499	336.195328195284	2.9417422464167
1	19552	337.318289408469	2.9349134959035
1	19569	337.597401684219	2.9354491327719
1	19576	337.750325177781	2.9370808139943
1	19579	337.755923388507	2.9399928505704
1	19582	337.762061638666	2.9429000852777
1	19633	338.972137930578	2.935344497853
1	19636	338.977080812836	2.9382517473207
1	19641	339.009245401592	2.940922743328
1	19648	339.056746639973	2.9434600841603
1	19677	339.503386721259	2.9425332384687
1	19694	339.88870272142	2.9421395650788
1	19705	340.0750113506	2.9434682543259
1	19742	341.346916397117	2.9354300621081
1	19749	341.441445573702	2.9375461385911
1	19752	341.443950972339	2.9404533222536
1	19755	341.457215472997	2.9432677198162
1	19770	341.707599940943	2.9440375343535
1	19777	341.879295036689	2.9454840191242
1	19852	344.163815772473	2.9288378202617
1	19855	344.172997125282	2.9316652044981
1	19874	344.9670435229	2.9278159144874
1	19881	345.009714581518	2.930352269142
1	19884	345.035607386971	2.9330306157793
1	19887	345.042853430074	2.9358672116514
1	19936	346.192103868419	2.9290096124937
1	19963	346.488898209049	2.9293867862618
1	19968	346.553316752396	2.9317278204724
1	19971	346.557483979935	2.9345780916937
1	19992	346.842118359787	2.9350529999474
1	19997	346.971218579897	2.9368430158865
1	20016	347.579714659814	2.9345786217654
1	20039	348.255829774158	2.9317527883513
1	20046	348.390269136135	2.9334918065712
1	20097	348.992027624016	2.9312990527741
1	20104	349.047313101244	2.9336997065008
1	20123	349.156160195656	2.9356491932596
1	20130	349.271861838825	2.937539813824
1	20169	349.869120113609	2.9353833789804
1	20184	350.028102301191	2.9369070461532
1	20233	350.929287376346	2.9322146569559
1	20244	351.040548241517	2.9341339772845
1	20297	352.014234605471	2.9288588319604
1	20318	352.587526675921	2.9269328093633
1	20327	352.752666249984	2.9283974263938
1	20422	356.372688171495	2.901456913843
1	20431	356.462711601858	2.9035295034057
1	20446	357.708685333763	2.8962114773181
1	20465	358.510014684145	2.8925272866188
1	20568	361.256405166325	2.8733054560572
1	20599	361.714968093108	2.872427440527
1	20608	361.892519347513	2.8737814251455
1	20619	362.035884336279	2.8754055745288
1	20628	362.218272374926	2.876718485702
1	20631	362.236354004464	2.8793355180114
1	20634	362.248398759205	2.8820003168433
1	20645	362.521970894857	2.882583909109
1	20682	363.402232215822	2.8783532605787
1	20701	363.816019081863	2.8778282018539
1	20720	364.758767810036	2.8731317585374
1	20735	364.99611196672	2.8740032170415
1	20742	365.042821802578	2.8763748724468
1	20785	367.111997338056	2.8628865513
1	20838	369.200777376659	2.8493981174009
1	20849	369.259324318483	2.851654462466
1	20852	369.260870557156	2.8543506340373
1	20909	370.305269760048	2.8490007735608
1	20912	370.333027256123	2.8514875052439
1	20931	370.543422046105	2.8525671678729
1	20948	370.718276857262	2.8539191781131
1	20965	370.784373939889	2.8561074156045
1	21004	371.456956900656	2.8536280726692
1	21015	371.772912446654	2.8538926976081
1	21042	372.188922607072	2.8533895973072
1	21071	373.000328694449	2.8498634403906
1	21080	373.442654443897	2.8491656947555
1	21119	374.780453311873	2.8416636742625
1	21122	374.807521252493	2.8441264904123
1	21135	374.934564689832	2.845829914035
1	21152	375.13553226049	2.8469710495416
1	21155	375.158129961263	2.8494651045157
1	21158	375.173144562982	2.852016503597
1	21163	375.186363158109	2.8545813632055
1	21168	375.206578672681	2.8570927615189
1	21171	375.220533545657	2.8596516023808
1	21178	375.244986379817	2.8621301789037
1	21189	375.451420565441	2.8632199563422
1	21208	376.007257944282	2.8616468891658
1	21269	377.601875607921	2.852210408823
1	21310	378.866162428987	2.8453319586229
1	21325	379.267066344833	2.8449609674755
1	21332	379.469908740756	2.8460754729773
1	21421	381.074787738325	2.8367135134175
1	21454	381.793057854399	2.8339960031768
1	21465	381.979895768288	2.8352277488891
1	21516	383.217078734137	2.8286839500492
1	21523	383.394413626159	2.8299838532806
1	21526	383.458545023625	2.8321183973957
1	21565	384.215084702735	2.8291445163872
1	21568	384.218557414524	2.8317216308378
1	21585	384.457895028839	2.8325598565698
1	21600	384.651960931098	2.8337305167027
1	21609	384.666556532281	2.8362226491308
1	21620	384.710696630382	2.8384965886435
1	21627	384.824558516062	2.8402553210605
1	21654	386.056613858144	2.8337812660865
1	21679	386.579535612897	2.8325348320985
1	21706	387.103284211181	2.8312857180568
1	21721	387.335302974433	2.8321714844371
1	21748	388.143819793198	2.8288483392187
1	21751	388.1493191901	2.8313845874911
1	21802	389.388429000396	2.8249427000793
1	21843	390.349017915909	2.8205527603945
1	21858	390.560621350816	2.8215850235709
1	21877	391.449184867301	2.817734823931
1	21880	391.476130703009	2.8200953095594
1	21889	391.724080488684	2.8208630897071
1	21892	391.744326448758	2.8232699884287
1	21909	392.037851576878	2.8237069342854
1	21920	392.193955932227	2.8251327773941
1	21953	392.872053164843	2.8228019556654
1	21958	392.920130114672	2.8250016095537
1	21963	392.97094266501	2.8271810441391
1	22024	393.911247403484	2.8229709289336
1	22031	394.004695492115	2.8248394314435
1	22040	394.038204776948	2.8271370301024
1	22045	394.0570983552	2.8295391826566
1	22048	394.064931336082	2.832020591673
1	22071	394.514309659685	2.8313294921128
1	22106	395.129597219914	2.8294514201571
1	22113	395.202857824176	2.8314572575734
1	22116	395.223942224595	2.8338364161236
1	22175	396.983329622127	2.8237961555389
1	22190	397.877343549321	2.8199645398027
1	22265	400.797875695232	2.8019110581662
1	22336	403.409659217924	2.7862495959543
1	22355	403.8933042197	2.7853890823306
1	22406	406.559073568692	2.7695852170171
1	22409	406.569441649106	2.7719741932122
1	22468	408.130743013783	2.7638202201345
1	22491	408.520213582537	2.7636331384907
1	22514	409.322610766322	2.7606586352131
1	22521	409.722175299981	2.7604070957886
1	22544	410.494798115653	2.7576476125797
1	22551	410.625649539561	2.759204158996
1	22564	410.977962176073	2.7592720397844
1	22591	412.497934490538	2.751528929234
1	22602	412.548221811704	2.7536174923049
1	22663	413.16411937652	2.7519330616506
1	22680	413.556627245951	2.7517392420439
1	22685	413.641867283514	2.7535897356815
1	22692	413.742213982615	2.7553388594955
1	22723	414.06825166527	2.7555843641989
1	22752	414.689276928272	2.7538691341602
1	22773	414.936330608907	2.7546394848643
1	22800	415.506154506064	2.7532684837363
1	22815	415.812440284627	2.7536453676476
1	22830	415.996643575551	2.7548299191791
1	22861	416.68557663952	2.7526750727738
1	22892	417.677106363354	2.7485346515528
1	22899	417.78776475393	2.7502002139214
1	22910	418.28486298732	2.7493225353337
1	22923	418.420545983881	2.7508209409113
1	22926	418.422545149336	2.7531977264486
1	22931	418.443918203974	2.7554469065983
1	22942	418.567870898339	2.7570200204886
1	22955	418.769013048937	2.7580837263741
1	22984	419.386332287586	2.7564083781521
1	22997	419.615470009685	2.7572863316343
1	23066	424.439406284228	2.7283046363149
1	23161	428.620923580917	2.7040210503891
1	23164	428.632331430854	2.706282085926
1	23175	428.969442309725	2.7064864894543
1	23182	429.038977225894	2.7083786361634
1	23193	429.279536547218	2.7091904015604
1	23210	429.906787161436	2.7075636737107
1	23217	429.991146914249	2.7093581073945
1	23220	430.000507925446	2.7116247039461
1	23225	430.044412231639	2.7136732086439
1	23236	430.478309242238	2.7132609818506
1	23243	430.68079356861	2.714307249027
1	23266	431.822808364464	2.7094446549301
1	23309	432.493398094422	2.7075557804107
1	23340	433.167232575076	2.7056524867607
1	23349	433.220746000845	2.7076265641205
1	23354	433.224369450217	2.709912190512
1	23363	433.288186592736	2.7118209920282
1	23394	434.400921703499	2.7071765763947
1	23399	434.418556260441	2.7093686101529
1	23404	434.426684688077	2.7116198003486
1	23413	434.549258132869	2.7131561679931
1	23420	434.753380831885	2.7141824584368
1	23435	435.195346798613	2.7137238683448
1	23462	435.797224187734	2.7122706029234
1	23489	436.285210114937	2.7115290011512
1	23516	437.515021022347	2.7061928004971
1	23557	438.296864508383	2.7036469935261
1	23606	439.349423310376	2.6994459013143
1	23677	441.492473903405	2.68860755316
1	23708	442.551469785006	2.6844335204155
1	23731	444.273547829695	2.6762790758269
1	23738	444.313901656947	2.6782866697671
1	23757	444.991234950864	2.6764572118629
1	23764	445.492712026543	2.6756891141442
1	23791	445.925270876693	2.6753361558867
1	23798	445.948894914245	2.6774368399985
1	23873	448.019767213002	2.6672930246666
1	23880	448.158407853786	2.6686992345577
1	23899	448.727380009848	2.6675439327409
1	23914	448.956862595045	2.6684078133373
1	23919	449.011500086372	2.6703102253937
1	23924	449.018601090335	2.672495075006
1	23941	449.474304889322	2.6720103617397
1	23948	449.503088775905	2.6740639386335
1	23971	450.285290281027	2.6716395715463
1	23980	450.340344101637	2.6735335080889
1	24015	450.952174679263	2.6721237143541
1	24034	451.234891671565	2.6726656609653
1	24041	451.419370171782	2.6737886757954
1	24048	451.464612846527	2.6757357401357
1	24051	451.473315717803	2.6778991313757
1	24068	451.594670451546	2.6793938883073
1	24075	451.646067731536	2.6813030966536
1	24130	452.624053190142	2.6777189401617
1	24155	453.786150300819	2.6730652735785
1	24164	453.867679741327	2.6747883891884
1	24221	455.07256510492	2.6699038640571
1	24228	455.148530017232	2.671655338432
1	24251	456.394309346555	2.6665538440706
1	24254	456.412396117932	2.6686391744831
1	24269	457.252800826664	2.6659213410966
1	24284	458.385394266308	2.6615158669109
1	24303	458.959837487833	2.6603635008311
1	24336	460.747491368114	2.6522119444893
1	24339	460.809273489107	2.6540264494675
1	24374	461.885948143812	2.6500048440939
1	24377	461.890839487746	2.6521417947119
1	24406	462.368680327027	2.651563681028
1	24443	463.351746438519	2.6480962021426
1	24446	463.38721333861	2.6500515436162
1	24481	464.943755946882	2.6433304766016
1	24538	466.838198010718	2.6347458396533
1	24551	466.993870703579	2.6360089012418
1	24558	467.112272877323	2.6374815468048
1	24561	467.119316616381	2.6395825566182
1	24580	467.647469725305	2.6387398198152
1	24603	468.402154616562	2.636623226063
1	24608	468.417118867599	2.6386738447733
1	24621	468.598498314327	2.6397865218301
1	24684	470.066740545947	2.6336685691954
1	24695	470.297123241133	2.6345047391768
1	24710	470.865281897142	2.6334496249203
1	24727	471.130857828299	2.6340877048904
1	24780	471.820421869664	2.6323574445514
1	24785	471.918549582838	2.6339290987794
1	24788	471.921922913116	2.6360292658602
1	24791	471.941109990363	2.6380410047885
1	24866	474.415793798115	2.6263881099419
1	24879	474.65665549753	2.6271621509087
1	24882	474.666059040246	2.6292168488377
1	24903	475.12854929942	2.6287622620061
1	24952	476.549692782888	2.6230213111678
1	24955	476.556183380783	2.6250839746222
1	24962	476.734674933564	2.6261987344941
1	24977	477.093020222528	2.6263222199637
1	24994	477.916165016207	2.6238911587296
1	25009	478.430868936242	2.6231584989288
1	25016	478.461494234429	2.6250806285043
1	25019	478.57416600035	2.6265521402989
1	25038	479.633676961159	2.6228350101902
1	25049	479.793284917128	2.6240467292439
1	25052	479.817261952512	2.6259997292984
1	25071	480.179454558118	2.6261015293968
1	25082	480.26987203218	2.6276892919809
1	25109	480.441132200287	2.6288340347043
1	25128	481.03846683676	2.6276484878889
1	25131	481.046108155592	2.6296855510384
1	25142	481.140868177877	2.6312460315301
1	25147	481.27938949251	2.6325665043251
1	25152	481.288511980354	2.63459436167
1	25207	482.193287739132	2.6317247300351
1	25220	482.310801949655	2.6331568666226
1	25229	482.583199845553	2.633742741991
1	25236	482.670326233038	2.6353391349479
1	25239	482.67325848137	2.6373949201272
1	25246	482.889430486606	2.6382851219506
1	25261	483.121332082084	2.6390886001767
1	25300	484.228838654413	2.6351177338916
1	25347	484.997394600154	2.6330038351088
1	25350	485.209978069734	2.6339112090896
1	25357	485.334077475551	2.6352981572048
1	25364	485.987706751693	2.6338114775689
1	25379	486.465126695381	2.6332822841834
1	25462	489.102818360376	2.6211257671703
1	25477	489.6815009042	2.6200703878561
1	25512	490.428701199383	2.618117571137
1	25535	490.733572677261	2.6185288138929
1	25568	491.394193060723	2.6170435429649
1	25571	491.400351822697	2.6190457439159
1	25576	491.46431698674	2.6207396050581
1	25647	492.899129038555	2.6151395367939
1	25722	494.187370009272	2.6103459503139
1	25733	494.409677842459	2.6111948407518
1	25740	494.530789002609	2.6125774749147
1	25743	494.533403412896	2.6145857713082
1	25746	494.560921495277	2.6164622875735
1	25773	495.598329186133	2.6130031594873
1	25818	496.716674951367	2.6091332652098
1	25863	497.873909139218	2.6050772619164
1	25870	497.940912359347	2.6067349916074
1	25933	499.16495592596	2.6023461474581

