                                                                
version 2
run Sim_1-2-20211204-12:34:21-9080
attr configname Sim_1
attr datetime 20211204-12:34:21
attr experiment Sim_1
attr inifile omnetpp.ini
attr iterationvars ""
attr iterationvarsf ""
attr measurement ""
attr network Network
attr processid 9080
attr repetition 2
attr replication #2
attr resultdir results
attr runnumber 2
attr seedset 2
param **.server.p1 1
param **.server.p2 0
param **.clients.num_clients 80
param **.processor.service_rate 100Hz
param **.disk.service_rate 10Hz
param **.webServer.serv_rate_w 1Hz
param **.processor.numrngs 2

vector 0 Network.clients throughput1:vector ETV
attr source service_rate
vector 1 Network.clients throughput:vector ETV
attr source throughput_s
0	727 1368960 241840 340141 10.000084316714 14.098803712372 32768 835.31160179988 810372771.47488 3709729511.1445 7.7527756376723e+17
1	1369687 1368876 241840 340141 10.000084316714 14.098803712372 32768 8038.8166871445 8068.4205190971 264013413.12976 2127170605226.7
0	2738563 1369095 340144 438445 14.098890812903 18.191397242966 32768 633.32506310022 279251605.69673 3038129722.8426 1.4294360949294e+17
1	4107658 1369150 340144 438445 14.098890812903 18.191397242966 32768 8029.7328870579 8045.792135584 263395918.11133 2117230878828.9
0	5476808 1368944 438448 536749 18.191465367803 22.284403996418 32768 863.79203403799 500000000000 502917041216.96 2.5000011009868e+23
1	6845752 1368938 438448 536749 18.191465367803 22.284403996418 32768 8020.8791575653 8034.6463100938 262996753.29057 2110818459369
0	8214690 1369031 536752 635053 22.284625715172 26.377450668438 32768 725.8811481783 558347292.01563 3146287650.6076 4.4449169957488e+17
1	9583721 1368980 536752 635053 22.284625715172 26.377450668438 32768 8022.4962812952 8030.8755364577 263030973.13032 2111367686949.2
0	10952701 1368989 635056 733357 26.377455996107 30.449177321244 32768 871.4374044177 8130081300.813 10483027960.378 6.615533616192e+19
1	12321690 1369138 635056 733357 26.377455996107 30.449177321244 32768 8023.5146686348 8030.6157213906 263025960.57978 2111287184613.9
0	13690828 1369006 733360 831661 30.449243117155 34.547676686484 32768 733.88664393943 1225490196.0784 3634725807.8896 1.5296930232975e+18
1	15059834 1368835 733360 831661 30.449243117155 34.547676686484 32768 8021.9126069653 8027.4353230619 262959337.73792 2110217737795.5
0	16428669 1368889 831664 929965 34.547678167715 38.638744052939 32768 793.02982926587 197745699.03105 2500996558.59 6.9711731306886e+16
1	17797558 1368894 831664 929965 34.547678167715 38.638744052939 32768 8019.0548023499 8026.8682014692 262895503.92789 2109193441332.2
0	19166452 1378186 929968 1028269 38.63891883631 42.720037613613 32768 741.32102981996 61094819.159335 2221366328.8302 2.1349928267797e+16
1	20544638 1378289 929968 1028269 38.63891883631 42.720037613613 32768 8020.6743435717 8029.5606308859 262943197.01077 2109958793362.1
0	21922927 1401733 1028272 1126573 42.720062035891 46.801682575925 32768 730.7161540772 3802281368.8213 9481317501.2717 2.1363097990041e+19
1	23324660 1401625 1028272 1126573 42.720062035891 46.801682575925 32768 8020.8430585033 8024.7499233812 262899952.71037 2109264708097.5
0	24726285 1401811 1126576 1224877 46.801916789414 50.884158590349 32768 634.81967602078 1197604790.4192 4488040317.791 1.7153015972132e+18
1	26128096 1401666 1126576 1224877 46.801916789414 50.884158590349 32768 8020.5199308379 8024.7577830566 262893236.87826 2109156950822.1
0	27529762 1401688 1224880 1323181 50.884224923744 55.007066545534 32768 728.28351222417 48773350.241428 2324238384.6112 1.909265771952e+16
1	28931450 1401767 1224880 1323181 50.884224923744 55.007066545534 32768 8017.7667594647 8024.149096909 262850120.73865 2108465215566.9
0	30333217 1401646 1323184 1421485 55.007085968594 59.085644337674 32768 666.16979548655 773395204.94973 4119635233.3784 1.1107365086414e+18
1	31734863 1401679 1323184 1421485 55.007085968594 59.085644337674 32768 8016.8978441669 8020.966499958 262776050.8028 2107277029842.5
0	33136542 1401784 1421488 1519789 59.085688247868 63.173988477918 32768 656.84471611443 669344042.83802 3929914578.42 6.6371194355677e+17
1	34538326 1401791 1421488 1519789 59.085688247868 63.173988477918 32768 8017.3684915907 8020.4613239938 262763106.02392 2107069404195.5
0	35940117 1401855 1519792 1618093 63.174086937233 67.264186420093 32768 786.36556665162 915750915.75092 3600301511.6192 9.2998376841595e+17
1	37341972 1401847 1519792 1618093 63.174086937233 67.264186420093 32768 8017.3416630978 8021.2256606534 262763945.11158 2107082873916.2
