version 2
run Sim_1-2-20211203-17:56:12-10452
attr configname Sim_1
attr datetime 20211203-17:56:12
attr experiment Sim_1
attr inifile omnetpp.ini
attr iterationvars ""
attr iterationvarsf ""
attr measurement ""
attr network Network
attr processid 10452
attr repetition 2
attr replication #2
attr resultdir results
attr runnumber 2
attr seedset 2
param **.server.p1 0.2
param **.server.p2 0.5
param **.clients.num_clients 35
param **.processor.service_rate 100Hz
param **.disk.service_rate 10Hz
param **.webServer.serv_rate_w 1Hz

vector 0 Network.clients throughput1:vector ETV
attr source service_rate
vector 1 Network.clients throughput:vector ETV
attr source throughput_s
0	1441	10.541335625218	1.5498615801889
0	1452	10.647144991916	9.4509591277887
0	1457	10.684137382935	27.032586227973
0	1476	10.774297907945	11.091328493141
0	1481	10.807624666261	30.005918683063
0	1488	10.835249034301	36.199923145826
0	1501	11.26096141219	2.3490038155779
0	1506	11.275891000369	66.981084006497
0	1511	11.295234350471	51.697353081388
0	1526	11.413685010743	8.4423336915445
0	1553	11.788766814154	2.6660850803904
0	1560	11.895172320905	9.3980098449238
0	1571	12.055264462646	6.2464027848276
0	1578	12.15636835829	9.8908157161533
0	1583	12.193247200685	27.115818584793
0	1586	12.196614579166	296.9669152554
0	1597	12.334529517211	7.2508461677568
0	1600	12.339076807169	219.91120188866
0	1617	12.468763877279	7.7108689335938
0	1660	12.873056594854	2.4734553864787
0	1683	13.19439364731	3.1119971766621
0	1690	13.204448213334	99.45730105238
0	1703	13.327400694453	8.1332234282621
0	1780	14.723891428257	0.71608065545557
0	1805	14.986989199065	3.8008683879339
0	1820	15.246816389261	3.8487119044225
0	1831	15.480875719896	4.2724210023459
0	1872	15.966930455797	2.0573814554986
0	1909	16.585515954455	1.6165914043725
0	1920	16.708357482656	8.1405695178567
0	1939	16.848802132311	7.1202427608064
0	1956	17.23265848666	2.6051411906309
0	1991	17.778724350008	1.8312809262034
0	2030	18.286347584488	1.9699649899288
0	2039	18.316489735186	33.176132984643
0	2074	18.725317041345	2.4460205689174
0	2089	18.859995034001	7.4251180930075
0	2096	18.897492360594	26.668567891629
0	2115	19.025724144262	7.7983786187445
0	2126	19.099141464976	13.620764014197
0	2147	19.506343418032	2.4557838991074
0	2164	19.669867346394	6.115312969893
0	2181	19.822780720325	6.5396503542668
0	2214	19.99741469652	5.7262625623514
0	2269	20.889331713756	1.1211805366142
0	2276	20.921563531584	31.025243606685
0	2303	21.186445148319	3.7752714300307
0	2308	21.197569479461	89.89304500515
0	2323	21.347529535325	6.6684424344767
0	2362	21.875754690367	1.8931321056084
0	2367	21.893971925795	54.893071122251
0	2372	21.900417761341	155.13892541372
0	2377	21.905225851737	207.98277853343
0	2380	21.919118045852	71.982869784425
0	2397	22.039098543314	8.3346878963951
0	2408	22.116096060713	12.987431722221
0	2473	23.226624412354	0.90047228287538
0	2522	23.809562993665	1.715446587445
0	2525	23.831008771171	46.629225716821
0	2534	24.08309810045	3.9668477950261
0	2545	24.220637413456	7.2706485014679
0	2566	24.427094615905	4.8436188621079
0	2589	24.584295124676	6.3613025671357
0	2620	25.13837865186	1.8047820426683
0	2675	26.071168250654	1.0720531203316
0	2730	26.768925174595	1.433163850746
0	2745	26.954599699789	5.3857684513003
0	2760	27.241557279014	3.4848356426087
0	2773	27.352669086144	8.9999436228232
0	2806	27.692231897411	2.9449632492696
0	2811	27.720569558242	35.288727815743
0	2840	28.409954328488	1.4505687435525
0	2847	28.419537328006	104.35146095141
0	2886	28.776612931396	2.8005273687315
0	2899	28.90557796999	7.7540394738154
0	2926	29.161831890985	3.9023793123521
0	2931	29.189297148525	36.409634919447
0	2942	29.343652930956	6.4785392827575
0	2949	29.519860505043	5.6751249495454
0	2956	29.618438678363	10.144233417207
0	2971	29.830252132698	4.7211354120047
0	3012	30.327442691048	2.011301267101
0	3015	30.332835154646	185.44399638987
0	3020	30.344830619185	83.364841498949
0	3025	30.380845867179	27.766017331509
0	3032	30.395486405887	68.303497565535
0	3035	30.399629604051	241.3594427341
0	3060	30.79023532312	2.5601263657467
0	3079	30.966887525856	5.6608408189195
0	3084	30.978947864287	82.91641281223
0	3099	31.138174579388	6.2803531390174
0	3102	31.139260621249	920.77482085196
0	3109	31.231950075611	10.788713849738
0	3116	31.296753623056	15.431253988815
0	3187	32.828634739813	0.65279217105111
0	3212	33.156997718023	3.0454103122443
0	3229	33.343950923998	5.3489320751938
0	3242	33.799716628749	2.1941098015401
0	3245	33.833116054836	29.940634231114
0	3252	33.911805287998	12.708218898782
0	3263	34.009022705384	10.286222642899
0	3266	34.021544909641	79.858144738455
0	3273	34.381859928853	2.7753491991174
0	3300	34.907899739632	1.9009968057724
0	3303	34.951890295661	22.732151858703
0	3318	35.055076855404	9.6911846125177
0	3329	35.32613448362	3.6892523799519
0	3358	35.886898985917	1.783279783053
0	3371	36.0805171794	5.1648038958064
0	3380	36.135055017604	18.335893627824
0	3383	36.143223032385	122.42876963521
0	3398	36.22360181202	12.44109458418
0	3403	36.243035558417	51.456882248621
0	3420	36.444791401416	4.9564859442755
0	3427	36.534261707415	11.176892588376
0	3452	36.86558303193	3.0182180439603
0	3463	36.966959309501	9.864240668135
0	3478	37.345910525267	2.6388620972719
0	3491	37.453884399611	9.2614996551299
0	3502	37.511321202325	17.410439870398
0	3515	37.738411373393	4.4035371293131
0	3546	38.26276018474	1.9071274280781
0	3563	38.547823142172	3.5079970018151
0	3572	38.601573210058	18.604627665232
0	3607	39.235412751398	1.577686361892
0	3626	39.384416333398	6.7112480557682
0	3643	39.676011664698	3.4294101882282
0	3646	39.685017605013	111.03782226209
0	3663	40.096061828443	2.4328282530172
0	3684	40.380706827333	3.513147969926
0	3729	41.043667410122	1.5083853036829
0	3754	41.657596099874	1.6288536709434
0	3763	41.71733005028	16.74089848743
0	3790	42.061473747978	2.9057629318481
0	3793	42.086042776379	40.701650210934
0	3800	42.132389246978	21.576616020068
0	3851	42.98991858962	1.1661408540483
0	3880	43.400745441798	2.4341154788167
0	3885	43.404578351252	260.8984146381
0	3894	43.424198988045	50.966745399251
0	3901	43.440504056338	61.330623216667
0	3910	43.571536923508	7.6316730420209
0	3917	43.686668128956	8.6857424632078
0	3938	43.752717247427	15.14024748777
0	3943	43.776248879459	42.495990020587
0	3958	43.919634500777	6.9741999986331
0	4007	44.777166874198	1.1661367325535
0	4038	45.358145645027	1.7212332880479
0	4041	45.39457609284	27.449566503631
0	4046	45.516498271314	8.2019531845328
0	4057	45.654504086289	7.2460714802572
0	4108	46.141627485462	2.0528679215528
0	4125	46.435402299907	3.403967769971
0	4154	46.848137114507	2.4228632153775
0	4169	46.916588045263	14.609005150925
0	4188	47.184728898176	3.7293832295091
0	4293	48.462489237499	0.78261937643943
0	4298	48.527919036084	15.283556141486
0	4305	48.572600924323	22.380432864678
0	4322	48.686204619892	8.8025305426145
0	4325	48.691895664247	175.71467337474
0	4330	48.707579365417	63.760459929753
0	4353	48.866787919319	6.2810695499159
0	4364	48.894408139596	36.205359333529
0	4371	48.920671558944	38.075773255174
0	4388	49.204818040494	3.5193115696702
0	4395	49.243099162898	26.122536049139
0	4404	49.282126811231	25.622860784939
0	4433	49.557006681541	3.6379528223447
0	4436	49.567383995698	96.364048044691
0	4469	49.888048665153	3.1185225416308
0	4476	49.989585967282	9.8485973039694
0	4489	50.098649965415	9.1689284926134
0	4500	50.205559395021	9.35371186326
0	4507	50.291527762384	11.632185543056
0	4516	50.43103532216	7.1680703297058
0	4585	51.56018535108	0.88562190531622
0	4602	51.72763560815	5.9719227518532
0	4629	52.00662502034	3.5843654142651
0	4632	52.018795538299	82.16577169261
0	4635	52.048280607674	33.915470480388
0	4740	53.921759125207	0.53376646203384
0	4753	54.07962179552	6.334619818715
0	4768	54.212908152908	7.5026433282213
0	4785	54.627205963569	2.4137226272196
0	4794	55.414269440171	1.2705455528407
0	4865	56.96843518494	0.64343201705854
0	4892	57.280636866437	3.2030577004103
0	4915	58.146596368694	1.1547884137695
0	4918	58.220946395084	13.449894351813
0	4965	59.8635942361	0.60877321056319
0	4978	60.027054908411	6.1176794752037
0	4985	60.05783520607	32.488314800543
0	5030	60.621909332481	1.7728166444411
0	5095	61.685554643242	0.94016303168256
0	5114	61.830086027512	6.9189124912268
0	5137	62.11434220354	3.5179534670919
0	5144	62.228220635477	8.781294078173
0	5147	62.23960127657	87.868512136375
0	5184	62.497806861124	3.8728829267086
0	5209	62.746814624766	4.0159390429196
0	5212	62.750553117876	267.4874529861
0	5219	62.794604098778	22.700970092464
0	5226	62.863683859714	14.476019986903
0	5239	63.08624556946	4.493135863942
0	5262	63.28117075465	5.1301733997342
0	5267	63.340789400257	16.773276041725
0	5274	63.447238018296	9.3942036864549
0	5281	63.499957692549	18.968250736927
0	5320	63.726783381261	4.4086717235529
0	5327	63.866891803377	7.1373296829513
0	5368	64.505588369643	1.5656887054306
0	5385	64.96922159905	2.1568773258099
0	5390	64.991599751274	44.686441936324
0	5413	65.1541033812	6.1537086922635
0	5444	65.708907485389	1.8024380000969
0	5463	65.928659836646	4.5505770212693
0	5516	66.796911780767	1.1517394309003
0	5519	66.799644708588	365.90794396981
0	5528	67.006456748739	4.8353084243542
0	5549	67.386331243934	2.6324483813705
0	5584	67.830436491062	2.2517184979618
0	5597	67.950280416022	8.3441859930219
0	5618	68.184002762424	4.2785810402571
0	5621	68.204120122191	49.708312203094
0	5646	68.525985317911	3.1068907520835
0	5681	69.229536995528	1.4213596979643
0	5698	69.36495607923	7.3844835798814
0	5701	69.372735600409	128.54261554032
0	5718	69.5144828944	7.0548083977074
0	5735	69.697527737014	5.463142177181
0	5740	69.738820243703	24.217468983698
0	5755	69.856010802444	8.5331106084243
0	5788	70.645091787523	1.2672970441683
0	5805	70.74288042057	10.226137423553
0	5824	70.870428024185	7.8402100208678
0	5835	70.901386872996	32.300942651482
0	5838	70.905912686399	220.95475684816
0	5849	70.987026166726	12.328407016548
0	5856	71.025658498925	25.885053867545
0	5883	71.509814876025	2.0654483701935
0	5926	72.68286361542	0.85247949758315
0	5957	73.073080964002	2.562674375278
0	5960	73.109411489182	27.525063154069
0	5963	73.111841286535	411.55695505443
0	5968	73.130268708089	54.266951948192
0	6041	74.106937727557	1.0238883184241
0	6060	74.266856518727	6.2531738308162
0	6075	74.381471470327	8.7248651771886
0	6080	74.388627366725	139.74489628993
0	6093	74.705706723196	3.1537846270716
0	6110	74.955570603434	4.0021791026677
0	6131	75.39389859637	2.2813966164967
0	6138	75.467099463643	13.661040329898
0	6155	75.578911435016	8.9435861627378
0	6160	75.611117054448	31.050481799036
0	6213	77.080857803956	0.6803921033929
0	6216	77.08969976699	113.09705731122
0	6227	77.421276998475	3.0158886227544
0	6298	78.845051502914	0.70235841201133
0	6301	78.851848954842	147.11394954936
0	6316	79.212311677442	2.7742119706222
0	6395	81.962688102478	0.36358659523738
0	6456	83.304819528932	0.74508351439327
0	6469	83.376685455777	13.914800015824
0	6472	83.382773203981	164.26434972178
0	6509	84.398530120328	0.984487512619
0	6532	84.614170792566	4.6373441040673
0	6555	84.800519057382	5.3662962785696
0	6564	84.844399098348	22.789404430475
0	6657	86.869557958626	0.49378842302906
0	6676	87.13988677101	3.6991987320223
0	6701	87.49248427365	2.8360949595862
0	6708	87.733810504518	4.1437683603776
0	6727	87.911531214383	5.6268062442448
0	6746	88.195538610502	3.5210350634002
0	6765	88.438617255354	4.113894910879
0	6784	88.561931662303	8.1093525464026
0	6801	88.707905471238	6.8505439934453
0	6812	88.833133544241	7.9854299121575
0	6843	89.196252357506	2.7539195532406
0	6846	89.200281391314	248.19846336718
0	6875	89.485861569917	3.5016435835701
0	6878	89.486822172207	1041.0135499469
0	6933	90.020454719452	1.8739486659176
0	6980	90.598961511462	1.7285881753013
0	7007	91.235236746136	1.571646899808
0	7010	91.306918727243	13.950507290072
0	7037	91.686838407363	2.6321352968189
0	7046	91.788067726859	9.8785609246293
0	7063	92.074173805994	3.4952071029856
0	7072	92.123379458905	20.322868224282
0	7107	92.474561771645	2.8475238180357
0	7132	92.809865837037	2.9823676573408
0	7141	92.863094189433	18.786980152238
0	7154	92.95879447401	10.44928972176
0	7159	92.967366190141	116.66275279269
0	7164	92.971357279372	250.55816648565
0	7195	93.464814298431	2.0265189497293
0	7234	94.124122508489	1.5167413127042
0	7269	94.647112898062	1.9120810246943
0	7298	95.302376894426	1.5261024648827
0	7319	95.729619267488	2.3405918116995
0	7332	96.013611454221	3.5212236347198
0	7337	96.024085404012	95.474965982678
0	7346	96.055095531406	32.247529566534
0	7349	96.084331361602	34.204604189308
0	7378	96.701080779738	1.6214040428644
0	7423	97.470548955435	1.2995989068608
0	7498	98.568569541736	0.91072973719809
0	7511	98.654754121346	11.603003745278
0	7516	98.712778705711	17.234074331486
0	7519	98.751378993809	25.906542393185
0	7530	98.844032847629	10.79285921493
0	7565	99.786840725348	1.0606614811274
0	7584	99.948408681733	6.1893460954417
0	7637	100.770212911443	1.2168348176461
0	7658	101.285017507848	1.9424845989784
0	7661	101.28695203942	516.92100272427
0	7676	101.37313828747	11.602779128056
0	7679	101.390342282819	58.126032919332
0	7714	101.624984715481	4.2618037524376
0	7717	101.633586820182	116.25061944244
0	7730	101.773053650535	7.1701636688016
0	7733	101.775860146238	356.31624125811
0	7756	101.992822738662	4.6090894694222
0	7781	102.48362206212	2.0374926211274
0	7794	102.801923192757	3.1416790697499
0	7803	102.865145910013	15.817099349761
0	7824	102.926545782707	16.286678719738
0	7831	102.974930566421	20.667654647605
0	7868	103.521974426135	1.8280069911082
0	7893	103.750778933508	4.3705432706786
0	7918	103.933177819767	5.4824896166309
0	7921	103.958998383866	38.728820802127
0	7954	104.381370824771	2.3675787128946
0	7957	104.382589277245	820.71317621207
0	7960	104.402293047655	50.751707880867
0	7981	104.721445036354	3.1333033645707
0	8012	105.277706254457	1.7977165537628
0	8029	105.459867567792	5.489639823583
0	8032	105.46556823207	175.41815325965
0	8051	105.585445354508	8.3418752441042
0	8062	105.663422796563	12.824221642134
0	8065	105.694883249157	31.785938139705
0	8072	105.940276284558	4.075095278747
0	8095	106.217444607	3.6079159089663
0	8104	106.250310886842	30.426321591837
0	8113	106.274269937293	41.737881142041
0	8176	107.009975401416	1.3592395989502
0	8181	107.121291036118	8.983464027107
0	8204	107.354028442958	4.2966879006582
0	8207	107.403683219532	20.139049432832
0	8248	108.128633738126	1.3794044894808
0	8269	108.514357290597	2.5925303072469
0	8308	109.352799303704	1.192688324735
0	8311	109.360040588493	138.09704066868
0	8386	110.424996173976	0.93900629625456
0	8407	110.632966341032	4.808381962451
0	8418	110.667776556097	28.727199706544
0	8427	110.720673281676	18.904761855373
0	8450	110.958646262603	4.2021577243963
0	8453	110.965868167978	138.4676131955
0	8514	111.777609992759	1.2319187818982
0	8583	112.871992958482	0.91375691263556
0	8586	112.88333372512	88.177460300546
0	8589	112.910553499839	36.737996927725
0	8592	112.980504756447	14.295668848437
0	8607	113.210108594013	4.3553279013141
0	8610	113.222166801471	82.931066120989
0	8613	113.2255838334	292.6516405987
0	8632	113.478658035747	3.9514102612042
0	8671	114.117415331278	1.5655398490106
0	8674	114.128873053609	87.27738123784
0	8693	114.340843707944	4.7176341609041
0	8696	114.344043197134	312.54989175319
0	8711	114.522754552763	5.5956153232701
0	8722	114.579957879909	17.481500638026
0	8737	114.854848645901	3.6378086269697
0	8772	115.720730250715	1.1548923021812
0	8809	116.621939917081	1.1096197004104
0	8820	117.542401557432	1.0864113789888
0	8853	118.401766751019	1.1636496421574
0	8856	118.407332472418	179.67122827594
0	8881	118.71920139582	3.2064753008782
0	8892	118.999143555761	3.5721664797141
0	8919	119.440465278198	2.2659206405657
0	8950	119.80784529673	2.7219771069637
0	8957	119.821251090195	74.594614829089
0	8972	120.020383461976	5.0217852128019
0	9107	122.721561560865	0.37020883606723
0	9116	123.0634590532	2.9248532745019
0	9145	123.350605680129	3.4825413437549
0	9174	123.658455683769	3.2483351897874
0	9193	123.799547729327	7.0875717766025
0	9200	123.811548654552	83.326908655078
0	9221	123.962585872098	6.6208846815881
0	9224	123.965261939579	373.68265452944
0	9237	124.154010216337	5.2980616150585
0	9266	124.806376121533	1.5328820712964
0	9273	124.906723125639	9.9654195848604
0	9318	126.026624232558	0.89293598677756
0	9329	126.27281390322	4.0619088417114
0	9356	126.676574833899	2.4767131339783
0	9359	126.68932668336	78.419997276346
0	9366	126.818476436775	7.7429493557504
0	9377	126.857131939214	25.869538277973
0	9392	126.962234261625	9.5145376149684
0	9411	127.205346093262	4.1133333300419
0	9416	127.259641247714	18.417849808017
0	9419	127.27550568413	63.03407028008
0	9424	127.285094258741	104.29078779371
0	9429	127.340584986267	18.021028820202
0	9442	127.538540307331	5.0516449602115
0	9447	127.613112585895	13.40980883589
0	9452	127.688495359097	13.2656302962
0	9459	127.70911464543	48.498283783933
0	9482	128.002618233178	3.4071133769533
0	9493	128.124160861603	8.2275660232004
0	9510	128.282875087554	6.3006324354865
0	9523	128.358221771348	13.271984241988
0	9532	128.394532746867	27.539882520555
0	9543	128.427896639477	29.972521842379
0	9554	128.526903631449	10.100296757655
0	9557	128.53671785311	101.89295030637
0	9562	128.546593710207	101.2570342177
0	9567	128.561712929762	66.140980118864
0	9590	128.77622846565	4.6616670250033
0	9597	128.849713077746	13.608291198348
0	9622	129.454596350488	1.6532115286754
0	9625	129.460402529964	172.23029431548
0	9632	129.562117974264	9.8313486892963
0	9703	130.662220282008	0.90900636509955
0	9714	130.789629857347	7.8487036577847
0	9753	131.419459064553	1.5877320209333
0	9780	131.669040904004	4.0067017784614
0	9785	131.691490276337	44.544675243772
0	9800	131.795012521829	9.6597595545518
0	9817	131.859617009266	15.478800926564
0	9830	131.888527036459	34.590074693604
0	9863	132.167130857793	3.5893262167469
0	9926	132.786609288841	1.6142612073002
0	9937	133.215301020427	2.3326785340608
0	9946	133.540368822014	3.0762813022943
0	9949	133.547566583642	138.93208078882
0	10010	134.402035175281	1.1703180313297
0	10015	134.410077372336	124.34413048587
0	10050	134.659200551936	4.0140785036769
0	10057	134.676476701661	57.883267737193
0	10114	135.767251513349	0.91677951240227
0	10129	135.913984932158	6.8150800827566
0	10182	137.553304657216	0.61000913044258
0	10185	137.599425917122	21.681974907843
0	10246	138.867344290369	0.78869430485427
0	10253	138.907700001666	24.779640052444
0	10280	139.33011570166	2.3673362519769
0	10329	140.15847837322	1.2072007036686
0	10340	140.218228696314	16.736311173193
0	10353	140.328654428018	9.0558603014788
0	10372	140.631495351799	3.3020636296934
0	10385	140.746602992313	8.6875206157872
0	10410	140.977188058228	4.3367943020587
0	10433	141.270236671868	3.4124031080675
0	10508	143.279912949827	0.4975925779527
0	10523	143.40369730474	8.0785653461848
0	10526	143.40934895734	176.93939645193
0	10531	143.421764442598	80.544576327022
0	10536	143.496175460947	13.438869970974
0	10539	143.503554886344	135.51190590077
0	10542	143.510800455995	138.01537327876
0	10569	144.010712314548	2.0003526279503
0	10576	144.100799711494	11.100331832203
0	10591	144.250366836223	6.6859612485825
0	10594	144.258696496688	120.05291262493
0	10603	144.415498596779	6.3774656042212
0	10612	144.500581502777	11.753242185023
0	10621	144.598519555859	10.210535828834
0	10662	145.328543459207	1.369818159945
0	10673	145.712215438795	2.6063930993184
0	10676	145.729691606032	57.220784536945
0	10711	146.358071381219	1.5913943119866
0	10788	149.196730701878	0.35227897645986
0	10809	149.520444651095	3.0891470769758
0	10846	151.010234880168	0.67123544005402
0	10849	151.014001061889	265.52091058805
0	10926	153.076702706956	0.48480108715263
0	10935	153.17878015902	9.7964827665666
0	10988	154.379422519727	0.83288748817021
0	11017	154.636694626881	3.8869351639485
0	11066	155.583235841247	1.0564780326758
0	11075	155.624766683747	24.078490582029
0	11096	155.869305716291	4.0893267205515
0	11105	155.916130001404	21.356439240593
0	11130	156.295684151273	2.6346701790644
0	11149	156.575531494896	3.573376781261
0	11182	157.384863372911	1.2355870652873
0	11201	157.617018125246	4.3074715892828
0	11206	157.723937279937	9.3528610742391
0	11249	158.95393667914	0.81300852719763
0	11264	159.062965222884	9.1719100857479
0	11279	159.220464354491	6.3492413564238
0	11294	159.368975915738	6.7334825087242
0	11297	159.381141442774	82.199480305359
0	11306	159.475197300776	10.631979987666
0	11309	159.483412226666	121.72964350382
0	11332	159.79686621373	3.1902609035751
0	11341	159.887717296001	11.007023526887
0	11366	160.224839363997	2.9662846041033
0	11371	160.236693447505	84.359115517039
0	11376	160.23931921818	380.84056978814
0	11409	160.946057400444	1.4149511447033
0	11412	160.987520931158	24.1175795399
0	11435	161.463101906907	2.1026913417323
0	11444	161.521191960727	17.214650946936
0	11467	162.04826356578	1.897275418393
0	11546	165.582867873531	0.28291709988785
0	11549	165.598532832559	63.836745325192
0	11564	165.913427986174	3.1756601793327
0	11659	169.940478240222	0.24832071539082
0	11664	170.133146955733	5.1902562247731
0	11683	170.927455662993	1.2589563615002
0	11686	170.933328365902	170.27934419558
0	11689	171.002184639488	14.523004919095
0	11728	172.989128124746	0.50328557778288
0	11733	173.004684975674	64.280361406572
0	11736	173.010914230493	160.53284526905
0	11753	173.278670689944	3.7347371639525
0	11756	173.358625103524	12.507126939271
0	11783	174.361217566391	0.99741424061818
0	11794	174.521787266466	6.2278250475209
0	11801	174.666441670713	6.9130283672005
0	11810	174.951300041147	3.5105164663985
0	11847	176.336900380254	0.72170883029986
0	11850	176.343101963318	161.24915036694
0	11865	176.44411653208	9.8995621350035
0	11868	176.451439572219	136.55530777093
0	11897	177.231026757539	1.2827301664656
0	11904	177.299611599983	14.580481114563
0	11911	177.512551462806	4.6961615676029
0	11920	177.602675004429	11.095879966448
0	11959	178.59385662637	1.0088968337021
0	11962	178.601108159487	137.90187314399
0	11993	180.012530986912	0.70850490765011
0	12016	180.506102464411	2.0260490032105
0	12029	180.642705516057	7.3204806770456
0	12052	181.279843319707	1.5695191750847
0	12055	181.296834934688	58.852557636116
0	12076	182.210529098258	1.0944581238133
0	12105	182.581017813171	2.6991375438651
0	12120	182.791987145312	4.7400254333253
0	12149	183.536230829901	1.3436459330552
0	12152	183.54196266335	174.46424584693
0	12155	183.547463430965	181.7928096568
0	12214	184.911833134034	0.73293917165605
0	12237	185.293483208118	2.6202012469147
0	12244	185.383846292832	11.066465948623
0	12259	185.65963295329	3.6259911858655
0	12268	185.747740600945	11.349752565358
0	12307	186.242716001451	2.020302421045
0	12316	186.281834397116	25.563420559569
0	12355	187.382087027577	0.90888217152547
0	12358	187.3864613028	228.60930074587
0	12369	187.660521011073	3.6488399053679
0	12376	188.057076074949	2.5217178926574
0	12381	188.065587084416	117.49487576971
0	12412	188.653310360322	1.7014810217589
0	12421	188.853795018798	4.9879128288497
0	12448	189.537311992372	1.4630214591031
0	12499	191.433200543948	0.52745716469923
0	12506	191.483071208592	20.051868310528
0	12523	192.046851811738	1.773739632793
0	12534	192.148954046616	9.7941049105818
0	12543	192.255284001331	9.4046875377718
0	12570	192.364399941399	9.1645638517783
0	12591	192.763984357546	2.5026001004807
0	12594	192.805277397986	24.21715595036
0	12605	193.332731597411	1.895899209998
0	12630	194.353856066786	0.97931254219387
0	12713	195.474320014177	0.89248743998279
0	12728	195.997944577753	1.909765258472
0	12731	196.002036252435	244.39870657342
0	12746	196.248572234839	4.0562030347412
0	12771	197.108765111819	1.1625299706164
0	12774	197.269552605209	6.2193892007162
0	12787	197.621945255369	2.837743634965
0	12796	197.694050546716	13.86860771684
0	12803	197.732085843821	26.291368179389
0	12816	198.161276636284	2.3299661072906
0	12819	198.174655366021	74.745511693417
0	12830	198.462387546787	3.4754541439814
0	12849	198.896860267914	2.3016404744723
0	12872	199.323822340575	2.3421284091292
0	12875	199.384985836675	16.349621322578
0	12894	199.525617942313	7.1107518120655
0	12933	199.890882100507	2.7377446638739
0	12938	199.933770110847	23.316539799174
0	12953	200.096724395049	6.136690452154
0	12974	201.166767447841	0.93454183678943
0	12977	201.185756401377	52.662196371388
0	13008	202.184349231197	1.0014091530982
0	13011	202.2082159397	41.899367894584
0	13046	203.018455162788	1.2342033951267
0	13069	204.026425465002	0.99209272118782
0	13096	204.520970254168	2.0220615440846
0	13107	205.012975725765	2.0324977215276
0	13110	205.023748335751	92.828014872867
0	13149	206.284862043441	0.7929499091971
0	13160	206.457664821727	5.786943994297
0	13169	206.647225625917	5.2753521714209
0	13214	207.562412175985	1.0926734007681
0	13233	208.495095182523	1.0721756405875
0	13240	208.59029245408	10.504502740935
0	13243	208.593166212583	347.97635185979
0	13284	209.269071837172	1.4794964912566
0	13295	209.325204019187	17.815092235908
0	13372	211.507312374776	0.45827238479644
0	13403	212.332653531926	1.2116201783189
0	13478	213.168090177666	1.1969788554274
0	13489	213.540003022084	2.6888020002775
0	13512	213.92321029147	2.6095538364976
0	13517	213.947046707039	41.952616453815
0	13542	214.21871655563	3.6809384817139
0	13599	215.175396949828	1.0452811681568
0	13602	215.203395597991	35.716010079426
0	13631	215.796856571257	1.6850307687407
0	13662	216.310935951122	1.9452248799837
0	13677	216.711185912117	2.4984387194294
0	13688	216.8663744056	6.4437767102207
0	13695	216.929344784459	15.880482508119
0	13706	217.173291336023	4.0992586022994
0	13719	217.438523230044	3.7702856351085
0	13724	217.459750656269	47.108867057198
0	13729	217.523577746022	15.667328776384
0	13734	217.526890402747	301.87250989612
0	13749	217.693071903317	6.0175169713236
0	13780	219.450517181852	0.56900775928204
0	13787	219.585073358974	7.431840153227
0	13790	219.873740942413	3.4641922313778
0	13793	219.883813542178	99.279235086335
0	13796	219.91604238073	31.028111620794
0	13813	220.499870580896	1.7128326444589
0	13842	220.92841014855	2.3335068112249
0	13859	221.06643727893	7.2449524759873
0	13864	221.078050445469	86.109158655543
0	13869	221.089232062086	89.43250643021
0	13872	221.110822352256	46.31711719139
0	13877	221.115390387805	218.91248202281
0	13888	221.46979735202	2.8216149821293
0	13927	222.208254152524	1.3541753550343
0	13948	222.357729819701	6.6900520926651
0	13957	222.38842180187	32.581799197382
0	13980	223.240071750915	1.1741913460118
0	14007	224.148301189478	1.1010433680527
0	14010	224.156571046154	120.92107991449
0	14021	224.513768259456	2.7995739125617
0	14032	224.714447474357	4.9830770989079
0	14057	225.069328996989	2.8178418323486
0	14096	225.711263540339	1.5577912270952
0	14101	225.715441323781	239.36137760201
0	14106	225.735078286991	50.924371009197
0	14149	226.447207789022	1.4042389721925
0	14160	226.630641107609	5.4515723081448
0	14163	226.633581421476	340.09974622889
0	14166	226.644892898664	88.40578320406
0	14169	226.647265093235	421.5505811475
0	14186	226.925121853912	3.5989766725974
0	14219	227.250877941883	3.0697814620399
0	14234	227.71916630663	2.135436357767
0	14249	227.976716566707	3.8827372944645
0	14262	228.192205074047	4.6406187148635
0	14271	228.448418010271	3.9030035514121
0	14292	228.982172175639	1.8735216788623
0	14301	229.367433618085	2.5956399728223
0	14312	229.550121170365	5.4738266921839
0	14339	230.069108189377	1.9268304665957
0	14342	230.074952689402	171.10103442937
0	14377	230.713758012684	1.5654221459243
0	14380	230.717545611882	264.01948773462
0	14427	231.758618482753	0.96054755433533
0	14474	233.197765904308	0.69485584660917
0	14527	234.910809114817	0.58375643641988
0	14534	235.190144025278	3.5799320548572
0	14545	235.450963836574	3.8340645790328
0	14574	235.907888297321	2.1885455603868
0	14583	235.936660586164	34.755663877026
0	14654	239.144125421474	0.31177270877339
0	14657	239.157710085851	73.612418551399
0	14670	239.517370706072	2.7803989199194
0	14675	239.533454972564	62.172558537088
0	14704	240.483982144168	1.0520477792471
0	14709	240.497010076324	76.758152255149
0	14764	242.412167682489	0.52215023806967
0	14781	243.123473961145	1.4058641544532
0	14784	243.212135638075	11.278830207436
0	14803	243.678866302057	2.142563317928
0	14806	243.694370715602	64.497763626957
0	14809	243.702501885443	122.98353368019
0	14832	245.006726462763	0.76673911639885
0	14839	245.069091488524	16.034628187797
0	14842	245.256860360517	5.3256963701485
0	14849	245.399356597716	7.0177291671462
0	14872	245.962724523704	1.7750389290378
0	14875	245.96741260069	213.30707729124
0	14886	246.059160433328	10.899440033048
0	14895	246.15541435571	10.389187009246
0	14898	246.175912883728	48.783990690546
0	14901	246.184209921047	120.52494903332
0	14916	246.915133830734	1.3681314658707
0	14927	247.083349286686	5.9447569448395
0	14970	248.798759003218	0.58295111095772
0	15009	251.0542630162	0.44335988508302
0	15028	251.269308839975	4.6501716817635
0	15035	251.291705981299	44.648555167549
0	15054	251.839277955777	1.8262439398096
0	15085	252.154019261844	3.1772124621836
0	15090	252.190221274985	27.622773244825
0	15095	252.206349819789	62.001873830055
0	15104	252.232005164196	38.978233312165
0	15155	253.403182577942	0.85384160270092
0	15164	253.495586189673	10.822087808766
0	15177	253.873466354985	2.6463415966126
0	15196	253.988063289921	8.7262368802314
0	15207	254.177958321881	5.2660672039627
0	15212	254.250118723453	13.858016006219
0	15223	254.514750082706	3.7788416415303
0	15230	254.591580200091	13.015729170228
0	15237	254.707174582763	8.6509394045341
0	15240	254.720035108623	77.757318082171
0	15243	254.725342369123	188.42112611582
0	15268	255.477988218402	1.3286461367693
0	15271	255.48514584306	139.71115387873
0	15282	255.678796165302	5.1639469969501
0	15297	255.731649100577	18.920425039724
0	15344	258.527310170728	0.35769715101623
0	15359	258.993645424643	2.1443800176048
0	15362	259.015218078343	46.354983207282
0	15365	259.026212908411	90.951837710567
0	15380	259.283061921536	3.8933379102116
0	15393	259.381413882163	10.167565482426
0	15402	259.432785748304	19.465907608949
0	15425	259.861570119102	2.3321745569665
0	15428	259.868531938982	143.64060220415
0	15461	261.060175695822	0.83917697236278
0	15492	261.656791068236	1.6761217465012
0	15511	262.267887621141	1.6364026195963
0	15542	263.126458173307	1.1647266464907
0	15565	263.537327216697	2.4338655250082
0	15568	263.547763308525	95.821310935287
0	15575	263.6034497605	17.957689249962
0	15582	263.623857676191	49.00059443312
0	15593	263.770883503664	6.8015260800599
0	15602	264.168426956019	2.515448296472
0	15649	266.010590375872	0.54284000497621
0	15652	266.040140754376	33.84051408562
0	15711	267.576872973161	0.65073145976639
0	15730	267.840669733975	3.7907971156063
0	15775	269.392599546555	0.64435903730566
0	15804	269.90908914215	1.9361474239341
0	15881	271.440347388132	0.65305770768842
0	15904	271.887199848737	2.2378751112752
0	15911	271.921548215457	29.113465806155
0	15926	272.683843756865	1.3118271663415
0	15929	272.689811932179	167.55539966365
0	15972	274.429583268326	0.57478818004592
0	15985	275.424538590453	1.0050702556796
0	15996	276.084858922189	1.5144164914186
0	16011	276.233045646183	6.7482428455635
0	16018	276.347921174861	8.7050741921113
0	16037	276.649634832698	3.3144008367704
0	16050	276.78636305797	7.3137788339654
0	16053	276.829291712835	23.294463876046
0	16082	277.316909623688	2.0507860309124
0	16085	277.334966040042	55.381975049466
0	16094	277.536072361954	4.9724941040768
0	16099	277.549132786963	76.56718669652
0	16102	277.570817317273	46.115824770198
0	16127	277.909307349928	2.9542967400143
0	16170	279.257846837922	0.74154298698923
0	16191	279.368967015064	8.9992657114117
0	16196	279.571364403393	4.9407752158071
0	16203	279.860770499809	3.4553522278348
0	16214	280.009399317797	6.7281703073272
0	16237	280.288665288942	3.5808157932739
0	16254	280.524077919298	4.2478604418453
0	16315	281.706627434014	0.84563055293305
0	16318	281.712717382686	164.20499643909
0	16325	281.845088487475	7.5545188022265
0	16328	281.852115822726	142.30145059007
0	16349	282.097301401351	4.0785433042514
0	16352	282.110320539934	76.809997345429
0	16365	282.243176161263	7.5269679219943
0	16370	282.246466053947	303.96128264712
0	16397	282.519789628256	3.6586672134965
0	16426	282.975353272959	2.1950829738662
0	16451	283.201263131732	4.4265443103341
0	16468	283.410916187321	4.7697850011801
0	16499	283.816680350048	2.4644857576365
0	16508	283.841676117205	40.00677369568
0	16517	284.015882651865	5.7403127956807
0	16524	284.305325491727	3.4549135866577
0	16529	284.364035098133	17.032987635526
0	16532	284.372346450638	120.317361031
0	16545	284.486224253038	8.781342622748
0	16556	284.53605633846	20.067392153701
0	16559	284.544258940954	121.91252724138
0	16576	284.758122330198	4.6758821298726
0	16585	284.833229129423	13.31437380262
0	16590	285.090633338373	3.8849403592862
0	16613	286.011608504289	1.0858056080214
0	16630	286.437076851121	2.3503511070704
0	16633	286.451655563078	68.593165359842
0	16652	287.132811672801	1.4680922415959
0	16677	287.575938994703	2.2566877521968
0	16692	288.12465491683	1.8224366373837
0	16721	289.500973837048	0.72657578509609
0	16764	290.341052023885	1.1903653917799
0	16807	290.963400262846	1.6068174333866
0	16810	290.977040645188	73.31172799467
0	16819	291.38490649736	2.4517865241101
0	16822	291.430024500288	22.164101580378
0	16825	291.462182955805	31.096020748614
0	16828	291.491461340036	34.154890246341
0	16845	291.953520906687	2.1642231265722
0	16850	291.960447269795	144.37591336281
0	16857	291.969375056895	112.00983948195
0	16880	292.324104497074	2.8190499201177
0	16883	292.33159243617	133.54809476672
0	16900	292.664774784286	3.0013594827414
0	16927	292.915692473441	3.9853706742145
0	16938	292.974237499826	17.080870259138
0	16947	293.148196090328	5.7484944958122
0	16982	293.828087935032	1.4708221723638
0	16987	293.853423829803	39.46969345423
0	16990	293.856187318113	361.86149092123
0	16993	293.861147989629	201.58561129771
0	16996	293.864422044175	305.43168598756
0	16999	293.867077232237	376.62115701392
0	17004	293.926137300018	16.931914194682
0	17007	293.95651429526	32.919648307327
0	17012	293.966769548458	97.511000527517
0	17039	294.731476021156	1.3076912981681
0	17070	296.210915729297	0.67593156686091
0	17073	296.215121674803	237.75866771775
0	17080	296.252410846452	26.817436692156
0	17097	296.604219001235	2.8424582727959
0	17126	297.22872012503	1.6012781433012
0	17137	297.558744637252	3.0300779577467
0	17144	297.597202028525	26.002803801777
0	17169	298.078695111568	2.0768730335233
0	17178	298.211107464509	7.552165472398
0	17205	299.316665122852	0.90452089264959
0	17294	300.797068995288	0.67549134301743
0	17301	300.975080035904	5.6176290894067
0	17304	300.993059023058	55.620485816829
0	17309	301.00797138963	67.058437382946
0	17320	301.207109489333	5.0216407683483
0	17355	301.979507307049	1.2946696340456
0	17368	302.149500758901	5.8825795294199
0	17389	302.674586692848	1.9044501772941
0	17396	302.796475831417	8.204176448699
0	17401	302.81435501272	55.930972624133
0	17406	302.884802259336	14.195018940213
0	17413	302.914381627786	33.807347905023
0	17428	303.080876850068	6.0061783533119
0	17451	303.223322693225	7.0202118772805
0	17454	303.229057713009	174.36731478937
0	17481	303.89925107069	1.4921067010574
0	17496	304.418792712224	1.9247735312369
0	17511	304.504075479911	11.72569825208
0	17554	305.999474845365	0.66871768378503
0	17565	306.103847328033	9.5810694010309
0	17628	307.550554830803	0.69122472793243
0	17651	307.755829285333	4.8715267678563
0	17678	308.886206333623	0.8846605665895
0	17681	308.90767050792	46.589260139383
0	17712	309.12561779999	4.5882653117747
0	17737	309.905914311443	1.2815641045708
0	17742	309.913894268469	125.31395805038
0	17777	310.558660483407	1.550949750207
0	17812	311.230086592574	1.4893671639321
0	17823	311.354323558814	8.0491340883856
0	17826	311.357290401107	337.05869784835
0	17831	311.369253180798	83.592611903765
0	17838	311.791434913661	2.3686481961656
0	17869	312.314468910739	1.9119216066004
0	17898	312.709672283403	2.5303427783502
0	17909	312.798412957741	11.268789734357
0	17912	312.811585341521	75.916403340626
0	17915	312.815982712987	227.40857981453
0	17926	313.0924629738	3.6168947362082
0	17937	313.501176004736	2.4467044706402
0	17984	314.047661203322	1.8298757268952
0	18035	315.102277410674	0.94821224349554
0	18070	315.912592121472	1.234088418579
0	18113	317.797534882638	0.53052008825001
0	18120	317.879935874721	12.135776217266
0	18197	319.698679870656	0.5498299937952
0	18214	320.10430905799	2.4653058291306
0	18253	321.326605487761	0.81813214507004
0	18282	321.890303051827	1.7740009248699
0	18301	322.322824326077	2.3120250020858
0	18320	322.841469557036	1.9281002510154
0	18357	323.582940628333	1.3486702835901
0	18390	324.08267734289	2.001053696618
0	18415	324.485775609581	2.4807846687333
0	18426	324.560611115777	13.362640955229
0	18445	324.934648484664	2.6735296608883
0	18448	324.944776433651	98.736674254933
0	18455	325.035133401253	11.067215141667
0	18458	325.131692391816	10.356363443418
0	18465	325.172877789874	24.280450041826
0	18474	325.321688904624	6.7199281564417
0	18521	327.860209294966	0.39393026103102
0	18588	330.099004338344	0.44666884668958
0	18607	330.708357800377	1.6410836440704
0	18614	330.840855632155	7.5472933147729
0	18625	330.907609039581	14.980508689516
0	18672	332.011185783127	0.90614450317865
0	18683	332.706119830133	1.4389854753963
0	18690	332.850207219624	6.9402326153078
0	18701	333.166215416774	3.1644748744455
0	18840	337.091487244176	0.25475942660049
0	18845	337.189819369967	10.169616409244
0	18852	337.223739971826	29.480608986738
0	18889	338.345646887689	0.89133954507338
0	18946	339.370627081306	0.97562860846233
0	18953	339.500965558948	7.6723314411167
0	18964	339.528725152872	36.023581711526
0	18987	340.037849106258	1.9641582238458
0	19010	341.025490381633	1.012513373968
0	19013	341.038820379132	75.018768763837
0	19020	341.067655085077	34.680429961985
0	19049	341.72638926071	1.5180630320858
0	19056	341.811991724648	11.681906734884
0	19075	342.191546303542	2.6346672009963
0	19082	342.292011977154	9.9536484855715
0	19085	342.320006892392	35.720772558104
0	19106	342.886148101827	1.7663437731339
0	19163	344.050780383331	0.85864011832868
0	19166	344.164568345003	8.7882758888199
0	19211	345.182982575581	0.98191872223982
0	19216	345.186444138672	288.88683340771
0	19281	347.978108416354	0.3582092617635
0	19364	351.478684798408	0.28566724186525
0	19419	353.922311401601	0.40922782502586
0	19428	354.096466838253	5.7419970299188
0	19465	355.08208019596	1.0145966389158
0	19486	355.429574906762	2.8777416430082
0	19495	355.463415172394	29.550595461472
0	19514	355.760211082026	3.3693186716755
0	19549	357.184059175104	0.70232211207184
0	19556	357.337382718904	6.5221555360371
0	19563	357.460173978515	8.1439021243693
0	19590	357.853651429089	2.5414416977166
0	19595	357.90379190162	19.943968405598
0	19652	359.524767962249	0.61691225693485
0	19657	359.580901684004	17.814603570463
0	19660	359.586452705254	180.14703150344
0	19663	359.602986230516	60.483168843511
0	19698	360.204124954844	1.6635095353704
0	19717	360.46104429914	3.8922721165281
0	19720	360.470491208921	105.85472108681
0	19723	360.477112561641	151.02654129563
0	19744	360.823187621388	2.8895465646414
0	19767	361.521257140919	1.4325220798522
0	19802	362.139178246282	1.6183295752822
0	19805	362.14288631745	269.68198685878
0	19810	362.173288009673	32.892905850927
0	19813	362.179018822719	174.49531017208
0	19818	362.190258683823	88.969070947338
0	19867	363.435110103056	0.80330871986003
0	19894	364.138220564616	1.4222516299662
0	19943	365.274954503985	0.87971333076859
0	19946	365.284934761902	100.19781135081
0	19949	365.290275045437	187.25597497699
0	19956	365.596591749255	3.2645950662689
0	19963	365.946612706985	2.8569717838764
0	19982	366.3209999421	2.6710312377313
0	19987	366.352879490841	31.368072619984
0	19992	366.407748341897	18.225276832923
0	19997	366.412012527401	234.51137364028
0	20000	366.510640749401	10.139085747688
0	20025	366.920892985151	2.4375248026909
0	20044	367.365106980148	2.2511672555628
0	20079	368.290497244932	1.0806251568179
0	20090	368.343486678705	18.871686840133
0	20101	368.496226378603	6.5470863218129
0	20106	368.499064032716	352.40376740024
0	20119	368.623161504783	8.0581818738427
0	20182	371.594789625829	0.3365158624384
0	20189	371.64227518147	21.059035458281
0	20194	371.661015792197	53.360053979419
0	20223	372.103246670687	2.2612622696418
0	20230	372.111386076851	122.85908576757
0	20241	372.369545541646	3.8735748108019
0	20260	372.537640805012	5.9490076042337
0	20275	372.682457584382	6.9052771671233
0	20286	372.718642081321	27.636144885082
0	20293	372.766176545764	21.037367554632
0	20312	373.390559323033	1.601581652162
0	20381	374.868609286012	0.6765671154881
0	20402	375.085388721676	4.6129836851774
0	20425	375.643724015107	1.7910384884591
0	20476	377.61816358274	0.50647283228771
0	20491	377.943430946496	3.0743939030728
0	20498	378.033562150215	11.094936700476
0	20509	378.131246278759	10.237077557073
0	20514	378.149902277028	53.602063292516
0	20527	378.506040501725	2.8078985367291
0	20544	378.715096877817	4.7833987113597
0	20547	378.716534019937	695.82540660627
0	20552	378.757759742773	24.256700215496
0	20573	378.978324037441	4.5338253932044
0	20602	379.687524638536	1.4100382860026
0	20611	379.990801322586	3.2973190904288
0	20632	380.280488535163	3.4519991100201
0	20635	380.284266715846	264.67765411525
0	20662	380.808334474198	1.9081502039825
0	20821	384.221156441102	0.29301264750917
0	20850	385.227334080135	0.99386028987989
0	20855	385.259555277665	31.035469711172
0	20860	385.269363387987	101.95643882155
0	20869	385.349535449502	12.473173086773
0	20882	385.453312560164	9.6360362475014
0	20919	386.246290124787	1.2610697258193
0	20950	388.220198518689	0.50660912283939
0	20961	388.375159684176	6.4532297292504
0	20980	389.700272252721	0.75465286779222
0	20995	389.949825798664	4.007156044292
0	21022	390.536691085873	1.7039685627954
0	21037	390.902481511978	2.7338058315199
0	21060	391.538007065277	1.573500852655
0	21075	391.77589269239	4.2037007957819
0	21088	392.120816860066	2.8991879772812
0	21131	392.788089389752	1.4986380459429
0	21136	392.806026054438	55.751725167752
0	21139	392.821229915191	65.772767604615
0	21144	392.850667669812	33.969982183581
0	21159	393.152528245546	3.3127876920277
0	21170	393.431313579183	3.5869892686036
0	21175	393.504792372855	13.609368771946
0	21190	393.658387989753	6.5106024520484
0	21207	394.100933701291	2.259653576858
0	21230	394.715279964261	1.6277465336333
0	21237	394.815640708513	9.9640552434432
0	21266	395.49923373427	1.4628586927033
0	21277	395.585686755669	11.566975726444
0	21292	395.822018066454	4.2313479186418
0	21327	396.380504371756	1.7905542007145
0	21334	396.46057753663	12.488578434155
0	21375	397.182564229647	1.3850670790361
0	21400	397.604275478151	2.3712907909084
0	21519	400.183734586157	0.38767817520202
0	21540	400.3435292117	6.2580327504876
0	21553	400.455642486311	8.919550369657
0	21564	400.603905448665	6.7447728287821
0	21571	400.776796534147	5.7839882097571
0	21582	401.067124205409	3.4443840494197
0	21597	401.534141246847	2.1412494861448
0	21600	401.595662317555	16.254593564315
0	21611	401.689116549977	10.700424946881
0	21614	401.697059661743	125.89524476798
0	21617	401.706961507702	100.99127012687
0	21672	402.541385048688	1.1984321521159
0	21709	403.217132484555	1.4798428331688
0	21736	403.899681225266	1.4650968353679
0	21749	403.98505028539	11.713845725225
0	21788	404.323919685288	2.9509893790971
0	21845	405.094499956387	1.2977233359139
0	21884	405.544364613423	2.2228907836162
0	21895	405.787822645538	4.1074841167189
0	21902	405.798841787954	90.75116395156
0	21905	405.801794856018	338.63086739879
0	21962	406.989371026998	0.84205125063666
0	21965	406.9926995035	300.43775264723
0	22002	407.833061569651	1.1899632792567
0	22005	407.837511284547	224.73349942014
0	22046	408.534584072075	1.4345704177411
0	22049	408.567109952868	30.744747739936
0	22052	408.572938369427	171.5731862809
0	22127	410.725151321515	0.46463803641263
0	22150	411.01475491621	3.4529958133053
0	22171	411.466065930559	2.2157668840466
0	22194	411.872305767392	2.4616000434519
0	22197	411.88428824822	83.455172126231
0	22214	412.035135380418	6.6292277846384
0	22237	412.464541176295	2.3287994936297
0	22252	413.106437582873	1.5578837796134
0	22267	413.373270979451	3.7476568256616
0	22274	413.419619057651	21.575867626805
0	22277	413.422217803741	384.80096376018
0	22280	413.448166547558	38.537510989062
0	22367	415.340638688977	0.5284093636645
0	22374	415.362975805499	44.768535769382
0	22411	415.757147762953	2.5369638328894
0	22422	415.78451478016	36.540335851589
0	22437	416.203339892651	2.3876314246116
0	22440	416.225833234477	44.457600286148
0	22447	416.295668833092	14.319344572572
0	22454	416.324942474509	34.160423903371
0	22481	417.424604877998	0.90937000012659
0	22492	417.760530695031	2.976847712487
0	22523	418.145053009205	2.6006293084658
0	22528	418.274652217268	7.7160965328884
0	22531	418.281026859623	156.87154577631
0	22534	418.286929629517	169.41199097333
0	22585	419.164511579424	1.1394947219527
0	22594	419.200400271436	27.863929943884
0	22607	419.338911446547	7.2196340778903
0	22610	419.358326562298	51.506260010245
0	22617	419.405889788524	21.024646125737
0	22686	420.500260616064	0.91376704754445
0	22711	420.987725458783	2.0514299952837
0	22718	421.08295591817	10.500841920085
0	22723	421.094169114408	89.18063848835
0	22742	421.489845671714	2.5273167730952
0	22759	421.768516884924	3.5884581994712
0	22768	421.814104208118	21.935922750815
0	22795	422.014024054066	5.002004654706
0	22798	422.016763436177	365.04582401429
0	22819	422.682774708058	1.5014760893997
0	22836	423.056558887809	2.675340622137
0	22871	423.952694501555	1.1159025315597
0	22874	423.956675476548	251.19474544763
0	22911	425.454277010474	0.66773435880402
0	22914	425.542537780254	11.330062070528
0	22917	425.550334930688	128.25198237031
0	22940	426.436816325485	1.1280552596696
0	22967	426.86568232209	2.3317306755868
0	22990	427.46853446333	1.6587815346282
0	22997	427.815083228294	2.8855967791542
0	23000	427.819222083817	241.61268602949
0	23027	428.647216955205	1.2077369492925
0	23042	428.818291621492	5.8454008515929
0	23049	428.85128000094	30.313704908612
0	23084	429.534572481644	1.4635021286488
0	23123	432.14701027063	0.38278423479249
0	23136	432.312515058821	6.0421212638631
0	23149	432.540530187757	4.3856739009659
0	23156	432.827234196965	3.4879177405382
0	23183	433.831323446536	0.99592740428926
0	23194	434.237273024171	2.4633601193179
0	23205	434.360933511238	8.0866574579978
0	23212	434.511440036768	6.6442301852266
0	23219	434.556945181867	21.9755370041
0	23230	434.817746290041	3.8343395356005
0	23239	435.288501066243	2.1242482297639
0	23312	437.312223505887	0.49413890976863
0	23343	438.26727461381	1.0470643839938
0	23370	438.758960967956	2.0338168663169
0	23389	439.292149840318	1.8755080082036
0	23420	440.504089305063	0.82512372035876
0	23439	441.536420690838	0.96868119460426
0	23480	442.176700407961	1.5618173952056
0	23493	442.297205339444	8.2984155726529
0	23496	442.312075488515	67.248821462739
0	23503	442.36359612301	19.409698847887
0	23542	443.356543762422	1.0071024496238
0	23547	443.628261434401	3.6802906219412
0	23550	443.654520835862	38.081599136415
0	23569	444.151192608287	2.0134021209168
0	23580	444.863864510774	1.4031702337504
0	23591	444.99289240746	7.7502619641517
0	23606	445.171449630714	5.6004455141951
0	23613	445.193664555727	45.014781702608
0	23628	445.493993770823	3.3296793975916
0	23681	446.807657536766	0.76122979557266
0	23704	447.812249335235	0.99542918977041
0	23771	449.25017064891	0.69544834650529
0	23782	449.456994691528	4.8350278204695
0	23785	449.46618969805	108.75468088113
0	23788	449.48189086013	63.689553353111
0	23837	451.113088465834	0.61304651043085
0	23868	453.268700852083	0.46390529502389
0	23875	453.377817131068	9.1645353864886
0	23878	453.408303569292	32.801470367003
0	23889	453.465836093312	17.381472776205
0	23922	454.340794485497	1.1429114903427
0	23939	454.732358014692	2.5538639976401
0	23962	455.114863684631	2.6143403316334
0	23997	456.42948296015	0.76067650811313
0	24004	456.520321268261	11.008571392347
0	24011	456.907675592122	2.5816156898221
0	24034	457.78877828849	1.1349414819885
0	24041	457.885705988123	10.316968253516
0	24062	458.257161026029	2.6921158631669
0	24111	459.017407674607	1.315362589063
0	24132	459.428444040191	2.4328747617725
0	24171	459.96251003733	1.8724277624058
0	24182	460.160727887012	5.0449543348608
0	24189	460.228274629695	14.804562889036
0	24200	461.388865672051	0.86162994845282
0	24279	463.626885611783	0.44682354354705
0	24310	465.358113708731	0.57762463638553
0	24337	465.770037804642	2.4276317164414
0	24358	466.028232210431	3.8730506067479
0	24365	466.25769007381	4.3580986298486
0	24392	466.526895138823	3.7146403614349
0	24407	466.768210358562	4.1439574390773
0	24426	467.137115191016	2.7107262145304
0	24437	467.209287842239	13.855663926079
0	24444	467.291764042214	12.12470991999
0	24473	467.958125759726	1.5006864495963
0	24480	468.108806782316	6.6365357946965
0	24495	468.483666951518	2.6676613899225
0	24518	468.71724461031	4.2812313693515
0	24525	468.82532776143	9.2521358753664
0	24534	468.914060770831	11.269763155229
0	24537	468.927112095101	76.620577292575
0	24548	469.05346268615	7.9144861270351
0	24587	469.454188570062	2.4954714435657
0	24604	469.708878577334	3.9263417152132
0	24607	469.713888836699	199.59046571235
0	24666	471.100301829429	0.72128579668811
0	24681	471.350087031976	4.0034397146158
0	24700	471.883146422541	1.8759635749782
0	24707	472.237406547456	2.8227845294187
0	24714	472.329300147019	10.88215071295
0	24827	476.419414332954	0.2444919517012
0	24844	476.97664610605	1.7945853920784
0	24873	477.355738068849	2.6378823560821
0	24882	477.407546001998	19.302063201865
0	24893	477.604054445359	5.0888398630431
0	24912	478.275451535027	1.4894315381893
0	24939	478.574537517887	3.3435201156454
0	24942	478.586652091229	82.545209952471
0	24949	478.685255910697	10.141594974671
0	24992	479.243886592427	1.7900914373395
0	25003	479.32964386821	11.660818173963
0	25026	479.772054702589	2.2603424742156
0	25029	479.789743996362	56.531369360056
0	25032	479.885167825042	10.479562744788
0	25053	480.276144568191	2.5576968899628
0	25068	480.4786029581	4.9392865390734
0	25071	480.487316444848	114.76462051538
0	25074	480.489684356976	422.31296853259
0	25091	480.982560849102	2.0289058536481
0	25140	482.342346914321	0.73540980127557
0	25143	482.362348110508	49.997009711347
0	25182	482.66288297906	3.3274009262821
0	25211	483.429724906393	1.3040497191878
0	25294	485.365549297478	0.51657578270285
0	25305	485.396715541203	32.085996914599
0	25312	485.569356201439	5.7923782186247
0	25321	486.057435601957	2.048846968216
0	25324	486.075642014339	54.925703044531
0	25335	486.253512517238	5.6220676486636
0	25354	486.428621588875	5.7107264098401
0	25379	486.723552106391	3.3906291163842
0	25446	487.676518355276	1.0493551069306
0	25537	489.035204526754	0.73600513569089
0	25568	489.339160702097	3.2899479632929
0	25575	489.351250178722	82.71656673144
0	25580	489.415802188218	15.491384510066
0	25583	489.422201109842	156.2763319759
0	25588	489.431919162826	102.90127061937
0	25597	489.552308091868	8.3064116273609
0	25612	489.78432454065	4.3100392461381
0	25681	491.065370066292	0.78061238260744
0	25684	491.07402174807	115.58446388341
0	25699	491.443763099201	2.7045933513823
0	25710	491.570649297391	7.8810778025093
0	25753	492.328444718	1.3196173700764
0	25772	492.543716173132	4.6452977213668
0	25787	493.354787459234	1.2329372487171
0	25794	493.62713134913	3.6718282917302
0	25843	495.410429447772	0.56075874289414
0	25846	495.422222963298	84.792358800512
0	25849	495.429979730227	128.91969156136
0	25854	495.444638104855	68.220387688129
0	25857	495.466457730496	45.830300503459
0	25860	495.468672628843	451.48798876231
0	25903	496.527776716111	0.94419426005572
0	25926	497.197794067252	1.4924986618586
0	25953	497.689318773367	2.0344857289148
0	25968	497.755169343507	15.185897371488
0	25983	498.025017038151	3.7057941196024
0	25988	498.045270019762	49.375446006274
0	26013	498.37541501097	3.0289721989754
0	26016	498.392282099433	59.28705491725
1	1441	10.541335625218	6.3559308214906
1	1452	10.647144991916	6.3866886429771
1	1457	10.684137382935	6.4581722910273
1	1476	10.774297907945	6.4969430581998
1	1481	10.807624666261	6.5694361335147
1	1488	10.835249034301	6.6449787884035
1	1501	11.26096141219	6.4825726088518
1	1506	11.275891000369	6.5626742931072
1	1511	11.295234350471	6.6399684745693
1	1526	11.413685010743	6.6586733319227
1	1553	11.788766814154	6.5316416223918
1	1560	11.895172320905	6.5572820549157
1	1571	12.055264462646	6.5531536238617
1	1578	12.15636835829	6.5809127892578
1	1583	12.193247200685	6.6430212286231
1	1586	12.196614579166	6.723177113432
1	1597	12.334529517211	6.7290770907951
1	1600	12.339076807169	6.8076405806305
1	1617	12.468763877279	6.8170350193967
1	1660	12.873056594854	6.680620050593
1	1683	13.19439364731	6.5937095955703
1	1690	13.204448213334	6.6644208510839
1	1703	13.327400694453	6.6779713494352
1	1780	14.723891428257	6.1125145100757
1	1805	14.986989199065	6.0719333811008
1	1820	15.246816389261	6.0340465610119
1	1831	15.480875719896	6.0074120923583
1	1872	15.966930455797	5.8871678723866
1	1909	16.585515954455	5.7278893379547
1	1920	16.708357482656	5.7456276058046
1	1939	16.848802132311	5.7570858295014
1	1956	17.23265848666	5.6868764663249
1	1991	17.778724350008	5.5684535094305
1	2030	18.286347584488	5.4685606044604
1	2039	18.316489735186	5.5141569951571
1	2074	18.725317041345	5.447170788873
1	2089	18.859995034001	5.4612951813779
1	2096	18.897492360594	5.5033756868645
1	2115	19.025724144262	5.5188438139774
1	2126	19.099141464976	5.5499876889431
1	2147	19.506343418032	5.485395069026
1	2164	19.669867346394	5.4906318430154
1	2181	19.822780720325	5.4987239952787
1	2214	19.99741469652	5.5007110503711
1	2269	20.889331713756	5.3137171414107
1	2276	20.921563531584	5.3533283891962
1	2303	21.186445148319	5.3335988746071
1	2308	21.197569479461	5.3779750603228
1	2323	21.347529535325	5.3870402104235
1	2362	21.875754690367	5.3026741999023
1	2367	21.893971925795	5.3439366962078
1	2372	21.900417761341	5.3880250726676
1	2377	21.905225851737	5.4324936344157
1	2380	21.919118045852	5.4746728289421
1	2397	22.039098543314	5.4902427048999
1	2408	22.116096060713	5.5163442799799
1	2473	23.226624412354	5.2956468325452
1	2522	23.809562993665	5.2079914290318
1	2525	23.831008771171	5.2452668370135
1	2534	24.08309810045	5.2318850122379
1	2545	24.220637413456	5.2434623347049
1	2566	24.427094615905	5.2400828675162
1	2589	24.584295124676	5.2472523351104
1	2620	25.13837865186	5.1713756802045
1	2675	26.071168250654	5.0247077054828
1	2730	26.768925174595	4.9310907755562
1	2745	26.954599699789	4.9342227850277
1	2760	27.241557279014	4.9189552061045
1	2773	27.352669086144	4.9355329666305
1	2806	27.692231897411	4.9111245530453
1	2811	27.720569558242	4.9421783961602
1	2840	28.409954328488	4.8574523705454
1	2847	28.419537328006	4.8910015105356
1	2886	28.776612931396	4.8650617893691
1	2899	28.90557796999	4.8779512434032
1	2926	29.161831890985	4.8693785949674
1	2931	29.189297148525	4.899055954392
1	2942	29.343652930956	4.9073644763596
1	2949	29.519860505043	4.9119473303483
1	2956	29.618438678363	4.9293617933567
1	2971	29.830252132698	4.927883255766
1	3012	30.327442691048	4.88006857379
1	3015	30.332835154646	4.9121685869571
1	3020	30.344830619185	4.9431813241088
1	3025	30.380845867179	4.9702368610852
1	3032	30.395486405887	5.0007424776911
1	3035	30.399629604051	5.0329560587676
1	3060	30.79023532312	5.0015856775334
1	3079	30.966887525856	5.0053464323976
1	3084	30.978947864287	5.0356777991108
1	3099	31.138174579388	5.0420425127916
1	3102	31.139260621249	5.0739804622138
1	3109	31.231950075611	5.0909405149236
1	3116	31.296753623056	5.112351329696
1	3187	32.828634739813	4.9042551198374
1	3212	33.156997718023	4.8858464622671
1	3229	33.343950923998	4.8884428954305
1	3242	33.799716628749	4.8521116848804
1	3245	33.833116054836	4.8768786100746
1	3252	33.911805287998	4.8950505167813
1	3263	34.009022705384	4.9104615985793
1	3266	34.021544909641	4.9380473592894
1	3273	34.381859928853	4.9153827148885
1	3300	34.907899739632	4.8699578395716
1	3303	34.951890295661	4.8924392515969
1	3318	35.055076855404	4.906564624276
1	3329	35.32613448362	4.8972241805912
1	3358	35.886898985917	4.8485660482474
1	3371	36.0805171794	4.8502630693973
1	3380	36.135055017604	4.8706166329139
1	3383	36.143223032385	4.8971836253066
1	3398	36.22360181202	4.9139232736634
1	3403	36.243035558417	4.9388799045677
1	3420	36.444791401416	4.9389773703851
1	3427	36.534261707415	4.9542536660393
1	3452	36.86558303193	4.9368539714228
1	3463	36.966959309501	4.9503665818943
1	3478	37.345910525267	4.9269116059043
1	3491	37.453884399611	4.9394075665466
1	3502	37.511321202325	4.9585030342379
1	3515	37.738411373393	4.9551635374838
1	3546	38.26276018474	4.9133935736026
1	3563	38.547823142172	4.9030006001359
1	3572	38.601573210058	4.922079184858
1	3607	39.235412751398	4.8680512477391
1	3626	39.384416333398	4.8750246385443
1	3643	39.676011664698	4.8644002232645
1	3646	39.685017605013	4.8884947445631
1	3663	40.096061828443	4.8633205134793
1	3684	40.380706827333	4.8538031005275
1	3729	41.043667410122	4.7997660158268
1	3754	41.657596099874	4.7530347052503
1	3763	41.71733005028	4.7701998128872
1	3790	42.061473747978	4.7549451357399
1	3793	42.086042776379	4.7759301359835
1	3800	42.132389246978	4.7944112263818
1	3851	42.98991858962	4.7220373208386
1	3880	43.400745441798	4.7003800953966
1	3885	43.404578351252	4.7230040651711
1	3894	43.424198988045	4.7438986740254
1	3901	43.440504056338	4.7651380778534
1	3910	43.571536923508	4.7737586205682
1	3917	43.686668128956	4.7840682055007
1	3938	43.752717247427	4.7997018976541
1	3943	43.776248879459	4.8199652871356
1	3958	43.919634500777	4.8269982755947
1	4007	44.777166874198	4.7568887196107
1	4038	45.358145645027	4.7180059271992
1	4041	45.39457609284	4.7362486557929
1	4046	45.516498271314	4.745532020334
1	4057	45.654504086289	4.7530907265986
1	4108	46.141627485462	4.7245841094072
1	4125	46.435402299907	4.7162291948193
1	4154	46.848137114507	4.6960245070636
1	4169	46.916588045263	4.7104874673919
1	4188	47.184728898176	4.7049120591341
1	4293	48.462489237499	4.6014970239591
1	4298	48.527919036084	4.6158995573958
1	4305	48.572600924323	4.6322411342673
1	4322	48.686204619892	4.6419720281022
1	4325	48.691895664247	4.6619667791386
1	4330	48.707579365417	4.6809963248119
1	4353	48.866787919319	4.6862093816784
1	4364	48.894408139596	4.7040144006517
1	4371	48.920671558944	4.7219302728024
1	4388	49.204818040494	4.714985427018
1	4395	49.243099162898	4.7316274556406
1	4404	49.282126811231	4.7481717032284
1	4433	49.557006681541	4.7420136068778
1	4436	49.567383995698	4.761195386476
1	4469	49.888048665153	4.7506368026286
1	4476	49.989585967282	4.7609916224505
1	4489	50.098649965415	4.7705876338981
1	4500	50.205559395021	4.7803470948638
1	4507	50.291527762384	4.792059631568
1	4516	50.43103532216	4.7986323987614
1	4585	51.56018535108	4.7129388373099
1	4602	51.72763560815	4.7170143605318
1	4629	52.00662502034	4.7109382680414
1	4632	52.018795538299	4.7290598994912
1	4635	52.048280607674	4.7455938431823
1	4740	53.921759125207	4.5992564787091
1	4753	54.07962179552	4.6043221408147
1	4768	54.212908152908	4.6114478731684
1	4785	54.627205963569	4.5947801205025
1	4794	55.414269440171	4.5475651406372
1	4865	56.96843518494	4.4410558088645
1	4892	57.280636866437	4.4343082391395
1	4915	58.146596368694	4.3854673519169
1	4918	58.220946395084	4.3970429175575
1	4965	59.8635942361	4.2930933780287
1	4978	60.027054908411	4.2980619387983
1	4985	60.05783520607	4.3125097518304
1	5030	60.621909332481	4.2888784411924
1	5095	61.685554643242	4.231136471245
1	5114	61.830086027512	4.2374193023671
1	5137	62.11434220354	4.2341267840877
1	5144	62.228220635477	4.2424481578297
1	5147	62.23960127657	4.2577393582976
1	5184	62.497806861124	4.2561493492256
1	5209	62.746814624766	4.2551960859957
1	5212	62.750553117876	4.2708786884566
1	5219	62.794604098778	4.2838075637336
1	5226	62.863683859714	4.2950076009311
1	5239	63.08624556946	4.2957065768262
1	5262	63.28117075465	4.298276987551
1	5267	63.340789400257	4.310018908588
1	5274	63.447238018296	4.3185489007573
1	5281	63.499957692549	4.3307115467932
1	5320	63.726783381261	4.3309890340575
1	5327	63.866891803377	4.3371454626723
1	5368	64.505588369643	4.3097041206251
1	5385	64.96922159905	4.294341122352
1	5390	64.991599751274	4.308249082521
1	5413	65.1541033812	4.3128519220952
1	5444	65.708907485389	4.2916555881363
1	5463	65.928659836646	4.2925186209033
1	5516	66.796911780767	4.251693565297
1	5519	66.799644708588	4.2664897581912
1	5528	67.006456748739	4.2682453882384
1	5549	67.386331243934	4.2590239697288
1	5584	67.830436491062	4.2458815673101
1	5597	67.950280416022	4.253109747754
1	5618	68.184002762424	4.2531970587068
1	5621	68.204120122191	4.2666044144937
1	5646	68.525985317911	4.2611572623922
1	5681	69.229536995528	4.2322975526895
1	5698	69.36495607923	4.2384514691278
1	5701	69.372735600409	4.2523910502711
1	5718	69.5144828944	4.2581054720591
1	5735	69.697527737014	4.2612702292778
1	5740	69.738820243703	4.2730863378336
1	5755	69.856010802444	4.2802329615641
1	5788	70.645091787523	4.2465795203763
1	5805	70.74288042057	4.2548451266126
1	5824	70.870428024185	4.2612978137643
1	5835	70.901386872996	4.2735412290701
1	5838	70.905912686399	4.2873716518469
1	5849	70.987026166726	4.2965597584501
1	5856	71.025658498925	4.3083021891959
1	5883	71.509814876025	4.2931169732748
1	5926	72.68286361542	4.2375875781352
1	5957	73.073080964002	4.2286433789787
1	5960	73.109411489182	4.2402201534049
1	5963	73.111841286535	4.2537569089684
1	5968	73.130268708089	4.2663592724566
1	6041	74.106937727557	4.2236261488863
1	6060	74.266856518727	4.2279963730634
1	6075	74.381471470327	4.2349256309841
1	6080	74.388627366725	4.2479611626945
1	6093	74.705706723196	4.2433170624376
1	6110	74.955570603434	4.2425132307035
1	6131	75.39389859637	4.2311116143205
1	6138	75.467099463643	4.2402583678754
1	6155	75.578911435016	4.2472165039847
1	6160	75.611117054448	4.2586330230795
1	6213	77.080857803956	4.1904048450201
1	6216	77.08969976699	4.2028961194468
1	6227	77.421276998475	4.1978124438118
1	6298	78.845051502914	4.134691953216
1	6301	78.851848954842	4.1470175314122
1	6316	79.212311677442	4.1407704566891
1	6395	81.962688102478	4.0140215946633
1	6456	83.304819528932	3.9613554397701
1	6469	83.376685455777	3.9699347388373
1	6472	83.382773203981	3.9816377801182
1	6509	84.398530120328	3.9455663448787
1	6532	84.614170792566	3.9473293524179
1	6555	84.800519057382	3.9504475175832
1	6564	84.844399098348	3.9601906969784
1	6657	86.869557958626	3.8793797035379
1	6676	87.13988677101	3.8788207389827
1	6701	87.49248427365	3.8746185208287
1	6708	87.733810504518	3.8753588615929
1	6727	87.911531214383	3.8788995628848
1	6746	88.195538610502	3.8777471671257
1	6765	88.438617255354	3.8783962328316
1	6784	88.561931662303	3.8842874533463
1	6801	88.707905471238	3.8891685940196
1	6812	88.833133544241	3.894943093814
1	6843	89.196252357506	3.8902979758521
1	6846	89.200281391314	3.9013329842913
1	6875	89.485861569917	3.9000574378704
1	6878	89.486822172207	3.911190402163
1	6933	90.020454719452	3.8991138302277
1	6980	90.598961511462	3.8852542471523
1	7007	91.235236746136	3.869119131923
1	7010	91.306918727243	3.87703368961
1	7037	91.686838407363	3.8718752458531
1	7046	91.788067726859	3.8784997747134
1	7063	92.074173805994	3.8773087527478
1	7072	92.123379458905	3.8860927823398
1	7107	92.474561771645	3.8821487025427
1	7132	92.809865837037	3.8788979679393
1	7141	92.863094189433	3.8874431565202
1	7154	92.95879447401	3.894198521488
1	7159	92.967366190141	3.9045959337772
1	7164	92.971357279372	3.9151843175335
1	7195	93.464814298431	3.9052129161094
1	7234	94.124122508489	3.8884824659799
1	7269	94.647112898062	3.8775614888039
1	7298	95.302376894426	3.8613937237648
1	7319	95.729619267488	3.8546063676378
1	7332	96.013611454221	3.8536202773334
1	7337	96.024085404012	3.8636139926671
1	7346	96.055095531406	3.8727773674263
1	7349	96.084331361602	3.8820065115118
1	7378	96.701080779738	3.8675886244941
1	7423	97.470548955435	3.8473159740944
1	7498	98.568569541736	3.8146033948559
1	7511	98.654754121346	3.82140732454
1	7516	98.712778705711	3.8292914550295
1	7519	98.751378993809	3.8379210889173
1	7530	98.844032847629	3.8444404690143
1	7565	99.786840725348	3.8181387167939
1	7584	99.948408681733	3.8219718056383
1	7637	100.770212911443	3.8007263151918
1	7658	101.285017507848	3.7912813706158
1	7661	101.28695203942	3.801081898981
1	7676	101.37313828747	3.8077148100653
1	7679	101.390342282819	3.8169315862501
1	7714	101.624984715481	3.8179587538073
1	7717	101.633586820182	3.8274748748979
1	7730	101.773053650535	3.8320555983234
1	7733	101.775860146238	3.8417754410347
1	7756	101.992822738662	3.8434076974654
1	7781	102.48362206212	3.8347590775215
1	7794	102.801923192757	3.8326131239903
1	7803	102.865145910013	3.8399789987713
1	7824	102.926545782707	3.8474039616176
1	7831	102.974930566421	3.8553072851448
1	7868	103.521974426135	3.844594369517
1	7893	103.750778933508	3.8457542594038
1	7918	103.933177819767	3.8486266694707
1	7921	103.958998383866	3.8572899530959
1	7954	104.381370824771	3.8512619332702
1	7957	104.382589277245	3.8607971194278
1	7960	104.402293047655	3.8696468076194
1	7981	104.721445036354	3.8674027068611
1	8012	105.277706254457	3.8564669999429
1	8029	105.459867567792	3.8592879868579
1	8032	105.46556823207	3.8685611507087
1	8051	105.585445354508	3.8736399569729
1	8062	105.663422796563	3.8802453029502
1	8065	105.694883249157	3.8885515302679
1	8072	105.940276284558	3.8889836278448
1	8095	106.217444607	3.888250197772
1	8104	106.250310886842	3.8964591872198
1	8113	106.274269937293	3.9049903635647
1	8176	107.009975401416	3.8874880443575
1	8181	107.121291036118	3.8927835537326
1	8204	107.354028442958	3.8936591953054
1	8207	107.403683219532	3.9011697498639
1	8248	108.128633738126	3.8842625258466
1	8269	108.514357290597	3.8796709533337
1	8308	109.352799303704	3.8590690196049
1	8311	109.360040588493	3.8679575988061
1	8386	110.424996173976	3.8397103435891
1	8407	110.632966341032	3.8415312727846
1	8418	110.667776556097	3.849358984673
1	8427	110.720673281676	3.8565516930492
1	8450	110.958646262603	3.8572929142184
1	8453	110.965868167978	3.866053653098
1	8514	111.777609992759	3.8469242635252
1	8583	112.871992958482	3.8184848934008
1	8586	112.88333372512	3.8269599749061
1	8589	112.910553499839	3.8348939632168
1	8592	112.980504756447	3.8413706943121
1	8607	113.210108594013	3.8424130618933
1	8610	113.222166801471	3.8508360360609
1	8613	113.2255838334	3.8595517479777
1	8632	113.478658035747	3.8597566060574
1	8671	114.117415331278	3.846915028049
1	8674	114.128873053609	3.8552908499615
1	8693	114.340843707944	3.8568895042128
1	8696	114.344043197134	3.8655271200964
1	8711	114.522754552763	3.8682269015447
1	8722	114.579957879909	3.8750232432914
1	8737	114.854848645901	3.8744554996711
1	8772	115.720730250715	3.8541063388877
1	8809	116.621939917081	3.8328979977337
1	8820	117.542401557432	3.8113905625886
1	8853	118.401766751019	3.7921731433635
1	8856	118.407332472418	3.8004403156774
1	8881	118.71920139582	3.7988800016968
1	8892	118.999143555761	3.7983466644716
1	8919	119.440465278198	3.7926844888362
1	8950	119.80784529673	3.7894012606234
1	8957	119.821251090195	3.7973230613116
1	8972	120.020383461976	3.7993546333275
1	9107	122.721561560865	3.7238769959209
1	9116	123.0634590532	3.7216571313992
1	9145	123.350605680129	3.7211004961765
1	9174	123.658455683769	3.7199235382363
1	9193	123.799547729327	3.7237615843955
1	9200	123.811548654552	3.7314774350253
1	9221	123.962585872098	3.734997916853
1	9224	123.965261939579	3.7429840645693
1	9237	124.154010216337	3.7453482105793
1	9266	124.806376121533	3.7337835972917
1	9273	124.906723125639	3.7387899411168
1	9318	126.026624232558	3.7135010387678
1	9329	126.27281390322	3.7141803172254
1	9356	126.676574833899	3.7102360923184
1	9359	126.68932668336	3.7177559651666
1	9366	126.818476436775	3.7218551528279
1	9377	126.857131939214	3.728603924505
1	9392	126.962234261625	3.7333936564416
1	9411	127.205346093262	3.7341197881082
1	9416	127.259641247714	3.7403845817344
1	9419	127.27550568413	3.7477753275152
1	9424	127.285094258741	3.75534938151
1	9429	127.340584986267	3.761565882956
1	9442	127.538540307331	3.7635682425355
1	9447	127.613112585895	3.7692051408608
1	9452	127.688495359097	3.774811494524
1	9459	127.70911464543	3.7820323266745
1	9482	128.002618233178	3.7811726563148
1	9493	128.124160861603	3.7853906455933
1	9510	128.282875087554	3.788502554751
1	9523	128.358221771348	3.7940693886171
1	9532	128.394532746867	3.8007848898216
1	9543	128.427896639477	3.8075839657541
1	9554	128.526903631449	3.8124313754969
1	9557	128.53671785311	3.8199201613434
1	9562	128.546593710207	3.827405968525
1	9567	128.561712929762	3.8347342203611
1	9590	128.77622846565	3.836111725634
1	9597	128.849713077746	3.841684922506
1	9622	129.454596350488	3.8314591677928
1	9625	129.460402529964	3.8390117000059
1	9632	129.562117974264	3.8437161092019
1	9703	130.662220282008	3.8190075059417
1	9714	130.789629857347	3.8229330608654
1	9753	131.419459064553	3.8122208352259
1	9780	131.669040904004	3.8125894785396
1	9785	131.691490276337	3.8195330536888
1	9800	131.795012521829	3.8241204303275
1	9817	131.859617009266	3.8298306293769
1	9830	131.888527036459	3.8365732893516
1	9863	132.167130857793	3.836052100923
1	9926	132.786609288841	3.8256869628698
1	9937	133.215301020427	3.8208824069087
1	9946	133.540368822014	3.819069877512
1	9949	133.547566583642	3.8263520112885
1	10010	134.402035175281	3.8094661240231
1	10015	134.410077372336	3.8166781094762
1	10050	134.659200551936	3.8170433055687
1	10057	134.676476701661	3.8239788611403
1	10114	135.767251513349	3.8006219780421
1	10129	135.913984932158	3.8038764021087
1	10182	137.553304657216	3.7658128337292
1	10185	137.599425917122	3.7718180620361
1	10246	138.867344290369	3.7445808635376
1	10253	138.907700001666	3.7506920062297
1	10280	139.33011570166	3.7464980013203
1	10329	140.15847837322	3.7314902820744
1	10340	140.218228696314	3.7370319456458
1	10353	140.328654428018	3.741217373885
1	10372	140.631495351799	3.7402716844059
1	10385	140.746602992313	3.7443177227431
1	10410	140.977188058228	3.7452867891075
1	10433	141.270236671868	3.744596260773
1	10508	143.279912949827	3.6990530569738
1	10523	143.40369730474	3.7028333995573
1	10526	143.40934895734	3.7096605198191
1	10531	143.421764442598	3.7163118308541
1	10536	143.496175460947	3.7213535363201
1	10539	143.503554886344	3.7281306405526
1	10542	143.510800455995	3.7349105314506
1	10569	144.010712314548	3.7288892705918
1	10576	144.100799711494	3.7334976702221
1	10591	144.250366836223	3.7365589552501
1	10594	144.258696496688	3.743275193204
1	10603	144.415498596779	3.7461353196621
1	10612	144.500581502777	3.7508499575802
1	10621	144.598519555859	3.755225168749
1	10662	145.328543459207	3.7432426352824
1	10673	145.712215438795	3.7402492190431
1	10676	145.729691606032	3.7466627012158
1	10711	146.358071381219	3.7374091830934
1	10788	149.196730701878	3.6730027355291
1	10809	149.520444651095	3.6717386794902
1	10846	151.010234880168	3.6421372394821
1	10849	151.014001061889	3.6486683097297
1	10926	153.076702706956	3.6060353420123
1	10935	153.17878015902	3.6101606203282
1	10988	154.379422519727	3.5885611628662
1	11017	154.636694626881	3.5890575735542
1	11066	155.583235841247	3.5736498022661
1	11075	155.624766683747	3.5791218317577
1	11096	155.869305716291	3.5799222780632
1	11105	155.916130001404	3.5852608706679
1	11130	156.295684151273	3.5829524215013
1	11149	156.575531494896	3.5829353069658
1	11182	157.384863372911	3.5708643636738
1	11201	157.617018125246	3.571949315477
1	11206	157.723937279937	3.5758681258317
1	11249	158.95393667914	3.5544888777463
1	11264	159.062965222884	3.5583392979434
1	11279	159.220464354491	3.5611000275544
1	11294	159.368975915738	3.5640562834533
1	11297	159.381141442774	3.5700585078587
1	11306	159.475197300776	3.5742235134217
1	11309	159.483412226666	3.580309651191
1	11332	159.79686621373	3.5795445402224
1	11341	159.887717296001	3.5837649676316
1	11366	160.224839363997	3.5824657542392
1	11371	160.236693447505	3.5884414963192
1	11376	160.23931921818	3.5946233596744
1	11409	160.946057400444	3.5850520933507
1	11412	160.987520931158	3.5903403981677
1	11435	161.463101906907	3.5859586070248
1	11444	161.521191960727	3.5908600782306
1	11467	162.04826356578	3.5853515935032
1	11546	165.582867873531	3.5148563826333
1	11549	165.598532832559	3.5205625921184
1	11564	165.913427986174	3.5199079850768
1	11659	169.940478240222	3.4423817448193
1	11664	170.133146955733	3.4443611399986
1	11683	170.927455662993	3.4342054512141
1	11686	170.933328365902	3.4399376974707
1	11689	171.002184639488	3.4444004399227
1	11728	172.989128124746	3.4106189585194
1	11733	173.004684975674	3.4160924606354
1	11736	173.010914230493	3.4217494464616
1	11753	173.278670689944	3.4222330863854
1	11756	173.358625103524	3.4264231136194
1	11783	174.361217566391	3.412456097202
1	11794	174.521787266466	3.4150463924026
1	11801	174.666441670713	3.4179433341035
1	11810	174.951300041147	3.418094063087
1	11847	176.336900380254	3.3969067093065
1	11850	176.343101963318	3.4024580112286
1	11865	176.44411653208	3.4061776148298
1	11868	176.451439572219	3.4117035341818
1	11897	177.231026757539	3.4023388062009
1	11904	177.299611599983	3.406662849114
1	11911	177.512551462806	3.408209701311
1	11920	177.602675004429	3.4121107690798
1	11959	178.59385662637	3.398773123926
1	11962	178.601108159487	3.4042341968957
1	11993	180.012530986912	3.3830978135865
1	12016	180.506102464411	3.379387132467
1	12029	180.642705516057	3.3823674100457
1	12052	181.279843319707	3.3759958569727
1	12055	181.296834934688	3.3811952658789
1	12076	182.210529098258	3.3697284291892
1	12105	182.581017813171	3.3683676833772
1	12120	182.791987145312	3.3699507818705
1	12149	183.536230829901	3.361734068582
1	12152	183.54196266335	3.3670774303178
1	12155	183.547463430965	3.3724247038304
1	12214	184.911833134034	3.3529492920585
1	12237	185.293483208118	3.3514400466125
1	12244	185.383846292832	3.3552006414706
1	12259	185.65963295329	3.3556028851826
1	12268	185.747740600945	3.3593948329126
1	12307	186.242716001451	3.3558359404248
1	12316	186.281834397116	3.3604994390676
1	12355	187.382087027577	3.3461042618643
1	12358	187.3864613028	3.351362716569
1	12369	187.660521011073	3.3517971527047
1	12376	188.057076074949	3.3500467685083
1	12381	188.065587084416	3.3552124542422
1	12412	188.653310360322	3.3500604828662
1	12421	188.853795018798	3.3517992049723
1	12448	189.537311992372	3.3449878197361
1	12499	191.433200543948	3.3170839655592
1	12506	191.483071208592	3.3214424438972
1	12523	192.046851811738	3.3168989441412
1	12534	192.148954046616	3.3203407385981
1	12543	192.255284001331	3.3237057869139
1	12570	192.364399941399	3.3270189296718
1	12591	192.763984357546	3.3253099749746
1	12594	192.805277397986	3.3297843744951
1	12605	193.332731597411	3.3258724205013
1	12630	194.353856066786	3.3135437239727
1	12713	195.474320014177	3.2996661656284
1	12728	195.997944577753	3.295952931505
1	12731	196.002036252435	3.3009861140765
1	12746	196.248572234839	3.3019348503824
1	12771	197.108765111819	3.2925983764944
1	12774	197.269552605209	3.2949839010424
1	12787	197.621945255369	3.2941685659392
1	12796	197.694050546716	3.2980253993325
1	12803	197.732085843821	3.3024483467785
1	12816	198.161276636284	3.300342080458
1	12819	198.174655366021	3.3051653289884
1	12830	198.462387546787	3.3054122149233
1	12849	198.896860267914	3.3032195637227
1	12872	199.323822340575	3.3011608561053
1	12875	199.384985836675	3.3051636121679
1	12894	199.525617942313	3.3078459137554
1	12933	199.890882100507	3.3068041576186
1	12938	199.933770110847	3.3110964677602
1	12953	200.096724395049	3.3133975681233
1	12974	201.166767447841	3.3007439967547
1	12977	201.185756401377	3.3054029862496
1	13008	202.184349231197	3.2940235113769
1	13011	202.2082159397	3.2985801140687
1	13046	203.018455162788	3.2903412621497
1	13069	204.026425465002	3.2789870158989
1	13096	204.520970254168	3.2759476897032
1	13107	205.012975725765	3.2729635654748
1	13110	205.023748335751	3.2776690771428
1	13149	206.284862043441	3.2624788524631
1	13160	206.457664821727	3.2645918018204
1	13169	206.647225625917	3.2664363044579
1	13214	207.562412175985	3.256851724323
1	13233	208.495095182523	3.2470787833514
1	13240	208.59029245408	3.2503909555103
1	13243	208.593166212583	3.2551401962422
1	13284	209.269071837172	3.2494051511305
1	13295	209.325204019187	3.2533110534438
1	13372	211.507312374776	3.2244748058239
1	13403	212.332653531926	3.2166508007084
1	13478	213.168090177666	3.208735413588
1	13489	213.540003022084	3.2078298693719
1	13512	213.92321029147	3.2067581589923
1	13517	213.947046707039	3.2110749392148
1	13542	214.21871655563	3.2116708150538
1	13599	215.175396949828	3.2020389401705
1	13602	215.203395597991	3.2062691115197
1	13631	215.796856571257	3.2020855677841
1	13662	216.310935951122	3.1990985428326
1	13677	216.711185912117	3.197804474574
1	13688	216.8663744056	3.2001272760803
1	13695	216.929344784459	3.2038081371174
1	13706	217.173291336023	3.2048139792803
1	13719	217.438523230044	3.2055037426031
1	13724	217.459750656269	3.2097893881213
1	13729	217.523577746022	3.2134447550148
1	13734	217.526890402747	3.2179929511426
1	13749	217.693071903317	3.2201300384577
1	13780	219.450517181852	3.1988988178974
1	13787	219.585073358974	3.2014926572479
1	13790	219.873740942413	3.2018375499618
1	13793	219.883813542178	3.2062387341884
1	13796	219.91604238073	3.210316047693
1	13813	220.499870580896	3.206351088268
1	13842	220.92841014855	3.2046580135346
1	13859	221.06643727893	3.2071806499755
1	13864	221.078050445469	3.2115354670867
1	13869	221.089232062086	3.2158961038878
1	13872	221.110822352256	3.2201047077908
1	13877	221.115390387805	3.2245607090013
1	13888	221.46979735202	3.2239158952456
1	13927	222.208254152524	3.217702252902
1	13948	222.357729819701	3.2200364726721
1	13957	222.38842180187	3.2240887101523
1	13980	223.240071750915	3.2162684520238
1	14007	224.148301189478	3.2076977437907
1	14010	224.156571046154	3.2120405689635
1	14021	224.513768259456	3.2113843422145
1	14032	224.714447474357	3.2129665364858
1	14057	225.069328996989	3.2123435175375
1	14096	225.711263540339	3.2076378849858
1	14101	225.715441323781	3.2120088716483
1	14106	225.735078286991	3.2161594268348
1	14149	226.447207789022	3.2104613128078
1	14160	226.630641107609	3.2122752529934
1	14163	226.633581421476	3.2166459861227
1	14166	226.644892898664	3.2208976371084
1	14169	226.647265093235	3.2252760680756
1	14186	226.925121853912	3.2257336429734
1	14219	227.250877941883	3.2255100910433
1	14234	227.71916630663	3.2232684314839
1	14249	227.976716566707	3.224013447816
1	14262	228.192205074047	3.2253511891923
1	14271	228.448418010271	3.2261112001523
1	14292	228.982172175639	3.222958333341
1	14301	229.367433618085	3.2219046459337
1	14312	229.550121170365	3.2236968389609
1	14339	230.069108189377	3.2207713840055
1	14342	230.074952689402	3.2250359777393
1	14377	230.713758012684	3.2204408024906
1	14380	230.717545611882	3.2247222378638
1	14427	231.758618482753	3.2145514366511
1	14474	233.197765904308	3.199001487459
1	14527	234.910809114817	3.1799303012697
1	14534	235.190144025278	3.180405382632
1	14545	235.450963836574	3.1811294708476
1	14574	235.907888297321	3.1792069583309
1	14583	235.936660586164	3.1830576822364
1	14654	239.144125421474	3.1445472418553
1	14657	239.157710085851	3.1485499661696
1	14670	239.517370706072	3.1479971485045
1	14675	239.533454972564	3.1519605480014
1	14704	240.483982144168	3.1436605185072
1	14709	240.497010076324	3.1476482795348
1	14764	242.412167682489	3.1269057458899
1	14781	243.123473961145	3.1218704949951
1	14784	243.212135638075	3.1248440708196
1	14803	243.678866302057	3.1229626579791
1	14806	243.694370715602	3.1268674683063
1	14809	243.702501885443	3.1308665036137
1	14832	245.006726462763	3.1182817346695
1	14839	245.069091488524	3.1215686782591
[...]
1	16365	282.243176161263	3.0363887327796
1	16370	282.246466053947	3.0398963430635
1	16397	282.519789628256	3.0404949725125
1	16426	282.975353272959	3.0391339388856
1	16451	283.201263131732	3.0402406771735
1	16468	283.410916187321	3.0415201065518
1	16499	283.816680350048	3.0406951379165
1	16508	283.841676117205	3.043950457942
1	16517	284.015882651865	3.0456043229818
1	16524	284.305325491727	3.0460210286325
1	16529	284.364035098133	3.0489087683005
1	16532	284.372346450638	3.0523361741528
1	16545	284.486224253038	3.0546294544901
1	16556	284.53605633846	3.0576089765057
1	16559	284.544258940954	3.0610352260902
1	16576	284.758122330198	3.0622480330477
1	16585	284.833229129423	3.0649513845989
1	16590	285.090633338373	3.0656917407828
1	16613	286.011608504289	3.0593163843099
1	16630	286.437076851121	3.0582633003733
1	16633	286.451655563078	3.06159864315
1	16652	287.132811672801	3.0578184181908
1	16677	287.575938994703	3.0565839516087
1	16692	288.12465491683	3.0542335929357
1	16721	289.500973837048	3.0431676561333
1	16764	290.341052023885	3.0378067236852
1	16807	290.963400262846	3.0347459481238
1	16810	290.977040645188	3.0380403829797
1	16819	291.38490649736	3.0372197744842
1	16822	291.430024500288	3.0401809199969
1	16825	291.462182955805	3.0432764587319
1	16828	291.491461340036	3.0464014140164
1	16845	291.953520906687	3.045005236584
1	16850	291.960447269795	3.0483581194735
1	16857	291.969375056895	3.0516899240764
1	16880	292.324104497074	3.0514076200956
1	16883	292.33159243617	3.0547502326317
1	16900	292.664774784286	3.0546894502727
1	16927	292.915692473441	3.0554866912129
1	16938	292.974237499826	3.0582893828695
1	16947	293.148196090328	3.0598857914296
1	16982	293.828087935032	3.0562088407237
1	16987	293.853423829803	3.0593483930978
1	16990	293.856187318113	3.0627226474755
1	16993	293.861147989629	3.0660739133565
1	16996	293.864422044175	3.0694426828723
1	16999	293.867077232237	3.0728178484804
1	17004	293.926137300018	3.0756026269187
1	17007	293.95651429526	3.0786866627864
1	17012	293.966769548458	3.0819810055118
1	17039	294.731476021156	3.0773774564034
1	17070	296.210915729297	3.0653833190597
1	17073	296.215121674803	3.0687157186997
1	17080	296.252410846452	3.0717049606447
1	17097	296.604219001235	3.0714330465954
1	17126	297.22872012503	3.0683441344981
1	17137	297.558744637252	3.0683016932103
1	17144	297.597202028525	3.0712654345198
1	17169	298.078695111568	3.0696591705674
1	17178	298.211107464509	3.0716495028912
1	17205	299.316665122852	3.0636449848979
1	17294	300.797068995288	3.0518914398544
1	17301	300.975080035904	3.0534089396716
1	17304	300.993059023058	3.0565488884896
1	17309	301.00797138963	3.0597196338294
1	17320	301.207109489333	3.0610167255453
1	17355	301.979507307049	3.056498794342
1	17368	302.149500758901	3.0580887861116
1	17389	302.674586692848	3.0560874307518
1	17396	302.796475831417	3.0581597670759
1	17401	302.81435501272	3.0612815563551
1	17406	302.884802259336	3.063871125516
1	17413	302.914381627786	3.0668732036022
1	17428	303.080876850068	3.0684878889936
1	17451	303.223322693225	3.0703442984889
1	17454	303.229057713009	3.0735840655551
1	17481	303.89925107069	3.0700964109417
1	17496	304.418792712224	3.0681417256751
1	17511	304.504075479911	3.0705664563813
1	17554	305.999474845365	3.0588287789481
1	17565	306.103847328033	3.0610526727417
1	17628	307.550554830803	3.049905081511
1	17651	307.755829285333	3.0511201109676
1	17678	308.886206333623	3.0431918963216
1	17681	308.90767050792	3.0462176560807
1	17712	309.12561779999	3.0473048681766
1	17737	309.905914311443	3.0428589983356
1	17742	309.913894268469	3.0460073506167
1	17777	310.558660483407	3.0429033874922
1	17812	311.230086592574	3.0395518966596
1	17823	311.354323558814	3.0415508260033
1	17826	311.357290401107	3.0447335881512
1	17831	311.369253180798	3.0478282306473
1	17838	311.791434913661	3.0469085857444
1	17869	312.314468910739	3.0450078195762
1	17898	312.709672283403	3.0443573844343
1	17909	312.798412957741	3.0466906497021
1	17912	312.811585341521	3.0497591671947
1	17915	312.815982712987	3.0529130631929
1	17926	313.0924629738	3.053411094345
1	17937	313.501176004736	3.0526201279243
1	17984	314.047661203322	3.0504923880957
1	18035	315.102277410674	3.0434562640439
1	18070	315.912592121472	3.0388152417516
1	18113	317.797534882638	3.023937867721
1	18120	317.879935874721	3.026299842904
1	18197	319.698679870656	3.0122113747533
1	18214	320.10430905799	3.0115183479938
1	18253	321.326605487761	3.0031749115053
1	18282	321.890303051827	3.0010223695507
1	18301	322.322824326077	3.0000978119432
1	18320	322.841469557036	2.9983756464997
1	18357	323.582940628333	2.9945954447364
1	18390	324.08267734289	2.9930633996019
1	18415	324.485775609581	2.9924270121729
1	18426	324.560611115777	2.9948181224408
1	18445	324.934648484664	2.9944482822549
1	18448	324.944776433651	2.9974323966364
1	18455	325.035133401253	2.9996757267356
1	18458	325.131692391816	3.0018605470912
1	18465	325.172877789874	3.0045556278877
1	18474	325.321688904624	3.0062551417736
1	18521	327.860209294966	2.986028716645
1	18588	330.099004338344	2.9688062887809
1	18607	330.708357800377	2.9663598662123
1	18614	330.840855632155	2.9681944756298
1	18625	330.907609039581	2.9706176985565
1	18672	332.011185783127	2.9637555664849
1	18683	332.706119830133	2.9605707298168
1	18690	332.850207219624	2.9622934840158
1	18701	333.166215416774	2.96248525309
1	18840	337.091487244176	2.9309550593437
1	18845	337.189819369967	2.933066015599
1	18852	337.223739971826	2.9357363751517
1	18889	338.345646887689	2.9289574407587
1	18946	339.370627081306	2.9230579220468
1	18953	339.500965558948	2.9248812249036
1	18964	339.528725152872	2.9275873478818
1	18987	340.037849106258	2.9261448471552
1	19010	341.025490381633	2.9206027939008
1	19013	341.038820379132	2.9234208554077
1	19020	341.067655085077	2.9261056717649
1	19049	341.72638926071	2.9233914365268
1	19056	341.811991724648	2.9255848952355
1	19075	342.191546303542	2.9252622129714
1	19082	342.292011977154	2.9273251052872
1	19085	342.320006892392	2.9300069519901
1	19106	342.886148101827	2.9280856213003
1	19163	344.050780383331	2.9210804256286
1	19166	344.164568345003	2.9230202424311
1	19211	345.182982575581	2.9172932932159
1	19216	345.186444138672	2.9201610234585
1	19281	347.978108416354	2.8996076925412
1	19364	351.478684798408	2.8735739710056
1	19419	353.922311401601	2.8565591019008
1	19428	354.096466838253	2.8579782482333
1	19465	355.08208019596	2.8528615114594
1	19486	355.429574906762	2.8528858361491
1	19495	355.463415172394	2.8554274692594
1	19514	355.760211082026	2.8558561872613
1	19549	357.184059175104	2.8472715225554
1	19556	357.337382718904	2.8488483131943
1	19563	357.460173978515	2.8506672188361
1	19590	357.853651429089	2.8503272103739
1	19595	357.90379190162	2.85272194121
1	19652	359.524767962249	2.8426414285519
1	19657	359.580901684004	2.8449786827082
1	19660	359.586452705254	2.8477157364973
1	19663	359.602986230516	2.8503656511432
1	19698	360.204124954844	2.848384926543
1	19717	360.46104429914	2.8491289592662
1	19720	360.470491208921	2.851828443855
1	19723	360.477112561641	2.8545501618332
1	19744	360.823187621388	2.8545837278085
1	19767	361.521257140919	2.8518378370158
1	19802	362.139178246282	2.8497330915634
1	19805	362.14288631745	2.8524652534372
1	19810	362.173288009673	2.8549869198868
1	19813	362.179018822719	2.8577028105171
1	19818	362.190258683823	2.8603751071737
1	19867	363.435110103056	2.8533291670856
1	19894	364.138220564616	2.8505659153014
1	19943	365.274954503985	2.8444326313335
1	19946	365.284934761902	2.8470925051368
1	19949	365.290275045437	2.8497884315987
1	19956	365.596591749255	2.8501359791523
1	19963	365.946612706985	2.8501425174692
1	19982	366.3209999421	2.849959462234
1	19987	366.352879490841	2.8524410711671
1	19992	366.407748341897	2.8547431235651
1	19997	366.412012527401	2.8574390691454
1	20000	366.510640749401	2.8593985644105
1	20025	366.920892985151	2.8589268696739
1	20044	367.365106980148	2.858191973188
1	20079	368.290497244932	2.8537255450852
1	20090	368.343486678705	2.8560298689838
1	20101	368.496226378603	2.8575597919912
1	20106	368.499064032716	2.860251498241
1	20119	368.623161504783	2.8620013883374
1	20182	371.594789625829	2.8418051853292
1	20189	371.64227518147	2.8441328411411
1	20194	371.661015792197	2.8466800526412
1	20223	372.103246670687	2.8459843053646
1	20230	372.111386076851	2.8486094208928
1	20241	372.369545541646	2.8493200174485
1	20260	372.537640805012	2.8507186487388
1	20275	372.682457584382	2.8522941672384
1	20286	372.718642081321	2.8547002480435
1	20293	372.766176545764	2.8570188686882
1	20312	373.390559323033	2.8549195296546
1	20381	374.868609286012	2.8463306170987
1	20402	375.085388721676	2.8473516487535
1	20425	375.643724015107	2.8457816054369
1	20476	377.61816358274	2.8335501392415
1	20491	377.943430946496	2.8337574152774
1	20498	378.033562150215	2.8357270552979
1	20509	378.131246278759	2.8376390752141
1	20514	378.149902277028	2.8401435344368
1	20527	378.506040501725	2.8401131949573
1	20544	378.715096877817	2.8411859175161
1	20547	378.716534019937	2.8438156332073
1	20552	378.757759742773	2.8461463092719
1	20573	378.978324037441	2.8471285336451
1	20602	379.687524638536	2.8444442598639
1	20611	379.990801322586	2.8448057064474
1	20632	380.280488535163	2.845268249675
1	20635	380.284266715846	2.8478695933251
1	20662	380.808334474198	2.8465763531587
1	20821	384.221156441102	2.8238944727822
1	20850	385.227334080135	2.8191145952641
1	20855	385.259555277665	2.8214744711953
1	20860	385.269363387987	2.8239982292709
1	20869	385.349535449502	2.8260057423702
1	20882	385.453312560164	2.8278392336552
1	20919	386.246290124787	2.8246225993459
1	20950	388.220198518689	2.8128366431388
1	20961	388.375159684176	2.8142891550758
1	20980	389.700272252721	2.8072856959426
1	20995	389.949825798664	2.8080535688337
1	21022	390.536691085873	2.8063944438936
1	21037	390.902481511978	2.8063265184629
1	21060	391.538007065277	2.8043254554773
1	21075	391.77589269239	2.8051751537017
1	21088	392.120816860066	2.805257850905
1	21131	392.788089389752	2.8030381514637
1	21136	392.806026054438	2.8054559423874
1	21139	392.821229915191	2.8078930465091
1	21144	392.850667669812	2.8102281371911
1	21159	393.152528245546	2.8106139999432
1	21170	393.431313579183	2.8111641392708
1	21175	393.504792372855	2.8131804782471
1	21190	393.658387989753	2.8146231194465
1	21207	394.100933701291	2.8139999303848
1	21230	394.715279964261	2.8121536113335
1	21237	394.815640708513	2.8139715995199
1	21266	395.49923373427	2.8116362944641
1	21277	395.585686755669	2.8135497245315
1	21292	395.822018066454	2.8143962416284
1	21327	396.380504371756	2.8129536839034
1	21334	396.46057753663	2.8149078703718
1	21375	397.182564229647	2.8123087481609
1	21400	397.604275478151	2.8118409910344
1	21519	400.183734586157	2.7962155962116
1	21540	400.3435292117	2.7975973589616
1	21553	400.455642486311	2.799311287113
1	21564	400.603905448665	2.8007714970811
1	21571	400.776796534147	2.8020584268139
1	21582	401.067124205409	2.8025233986128
1	21597	401.534141246847	2.8017542829774
1	21600	401.595662317555	2.803815144571
1	21611	401.689116549977	2.8056523156006
1	21614	401.697059661743	2.8080862751394
1	21617	401.706961507702	2.810506434249
1	21672	402.541385048688	2.8071647834752
1	21709	403.217132484555	2.804940338301
1	21736	403.899681225266	2.8026761411794
1	21749	403.98505028539	2.8045592261387
1	21788	404.323919685288	2.80468195125
1	21845	405.094499956387	2.8018153791824
1	21884	405.544364613423	2.8011731862749
1	21895	405.787822645538	2.801956925635
1	21902	405.798841787954	2.8043451158854
1	21905	405.801794856018	2.8067889655444
1	21962	406.989371026998	2.8010559517152
1	21965	406.9926995035	2.8034900905887
1	22002	407.833061569651	2.8001653313851
1	22005	407.837511284547	2.802586737056
1	22046	408.534584072075	2.8002525235371
1	22049	408.567109952868	2.8024771747586
1	22052	408.572938369427	2.8048847399771
1	22127	410.725151321515	2.7926217722716
1	22150	411.01475491621	2.7930870759957
1	22171	411.466065930559	2.7924538501163
1	22194	411.872305767392	2.792127520828
1	22197	411.88428824822	2.7944741589812
1	22214	412.035135380418	2.7958780722338
1	22237	412.464541176295	2.7953918092251
1	22252	413.106437582873	2.7934689344281
1	22267	413.373270979451	2.7940848649051
1	22274	413.419619057651	2.7961904726123
1	22277	413.422217803741	2.7985917306197
1	22280	413.448166547558	2.8008347688895
1	22367	415.340638688977	2.7904806128733
1	22374	415.362975805499	2.7927380810734
1	22411	415.757147762953	2.7924955860577
1	22422	415.78451478016	2.7947168754334
1	22437	416.203339892651	2.7943072256459
1	22440	416.225833234477	2.7965587598314
1	22447	416.295668833092	2.7984917625148
1	22454	416.324942474509	2.8006969581732
1	22481	417.424604877998	2.7957144508553
1	22492	417.760530695031	2.7958601020944
1	22523	418.145053009205	2.7956805696665
1	22528	418.274652217268	2.7972051229924
1	22531	418.281026859623	2.7995532304959
1	22534	418.286929629517	2.8019044272745
1	22585	419.164511579424	2.7984239304518
1	22594	419.200400271436	2.8005698449711
1	22607	419.338911446547	2.802029499115
1	22610	419.358326562298	2.8042843685501
1	22617	419.405889788524	2.8063506704531
1	22686	420.500260616064	2.8014251365127
1	22711	420.987725458783	2.8005567115173
1	22718	421.08295591817	2.8022981776287
1	22723	421.094169114408	2.8045983217572
1	22742	421.489845671714	2.804338021753
1	22759	421.768516884924	2.8048561062294
1	22768	421.814104208118	2.8069236855481
1	22795	422.014024054066	2.8079635567945
1	22798	422.016763436177	2.8103149039466
1	22819	422.682774708058	2.808252597518
1	22836	423.056558887809	2.8081351654804
1	22871	423.952694501555	2.8045581863748
1	22874	423.956675476548	2.8068905830115
1	22911	425.454277010474	2.7993607406388
1	22914	425.542537780254	2.801130073195
1	22917	425.550334930688	2.8034286477399
1	22940	426.436816325485	2.7999458637001
1	22967	426.86568232209	2.7994754544319
1	22990	427.46853446333	2.7978667517635
1	22997	427.815083228294	2.7979378168891
1	23000	427.819222083817	2.8002481846533
1	23027	428.647216955205	2.7971720159921
1	23042	428.818291621492	2.7983880898887
1	23049	428.85128000094	2.8005046411366
1	23084	429.534572481644	2.798377772144
1	23123	432.14701027063	2.7837748993025
1	23136	432.312515058821	2.7850223115474
1	23149	432.540530187757	2.7858661001709
1	23156	432.827234196965	2.7863311379597
1	23183	433.831323446536	2.7821873036071
1	23194	434.237273024171	2.7818892459118
1	23205	434.360933511238	2.7833994881327
1	23212	434.511440036768	2.784736806694
1	23219	434.556945181867	2.7867463940616
1	23230	434.817746290041	2.7873747342215
1	23239	435.288501066243	2.7866575777415
1	23312	437.312223505887	2.7760486324107
1	23343	438.26727461381	2.7722809125336
1	23370	438.758960967956	2.7714533677383
1	23389	439.292149840318	2.7703659180852
1	23420	440.504089305063	2.7650140590556
1	23439	441.536420690838	2.7608141545667
1	23480	442.176700407961	2.7590779859599
1	23493	442.297205339444	2.7605871917344
1	23496	442.312075488515	2.7627552303435
1	23503	442.36359612301	2.7646940451671
1	23542	443.356543762422	2.7607577179596
1	23547	443.628261434401	2.7613209222495
1	23550	443.654520835862	2.7634114889445
1	23569	444.151192608287	2.7625727914731
1	23580	444.863864510774	2.7603950286015
1	23591	444.99289240746	2.7618418652733
1	23606	445.171449630714	2.7629804225323
1	23613	445.193664555727	2.7650887647479
1	23628	445.493993770823	2.7654693828123
1	23681	446.807657536766	2.7595766974932
1	23704	447.812249335235	2.7556191279534
1	23771	449.25017064891	2.7490251104772
1	23782	449.456994691528	2.7499850143578
1	23785	449.46618969805	2.7521536176748
1	23788	449.48189086013	2.7542822640328
1	23837	451.113088465834	2.7465396852342
1	23868	453.268700852083	2.7356841486495
1	23875	453.377817131068	2.7372314063642
1	23878	453.408303569292	2.7392528769826
1	23889	453.465836093312	2.7411105778302
1	23922	454.340794485497	2.7380328051077
1	23939	454.732358014692	2.7378742199819
1	23962	455.114863684631	2.7377703947358
1	23997	456.42948296015	2.7320759209345
1	24004	456.520321268261	2.7337227760923
1	24011	456.907675592122	2.7335938237006
1	24034	457.78877828849	2.7305169092901
1	24041	457.885705988123	2.7321228499595
1	24062	458.257161026029	2.7320904210134
1	24111	459.017407674607	2.729743968421
1	24132	459.428444040191	2.7294783687583
1	24171	459.96251003733	2.7284832407279
1	24182	460.160727887012	2.7294810788556
1	24189	460.228274629695	2.7312533133941
1	24200	461.388865672051	2.7265504081197
1	24279	463.626885611783	2.7155457094311
1	24310	465.358113708731	2.7075922023971
1	24337	465.770037804642	2.7073446071018
1	24358	466.028232210431	2.7079904451586
1	24365	466.25769007381	2.7088025074719
1	24392	466.526895138823	2.7093829169782
1	24407	466.768210358562	2.7101245798814
1	24426	467.137115191016	2.7101250550009
1	24437	467.209287842239	2.7118467739619
1	24444	467.291764042214	2.7135081282653
1	24473	467.958125759726	2.7117810978061
1	24480	468.108806782316	2.713044449494
1	24495	468.483666951518	2.7130081359518
1	24518	468.71724461031	2.713789634639
1	24525	468.82532776143	2.7152969872135
1	24534	468.914060770831	2.7169157561744
1	24537	468.927112095101	2.7189726657166
1	24548	469.05346268615	2.7203721995627
1	24587	469.454188570062	2.7201802243786
1	24604	469.708878577334	2.7208342407128
1	24607	469.713888836699	2.7229341741791
1	24666	471.100301829429	2.7170434725458
1	24681	471.350087031976	2.7177251797412
1	24700	471.883146422541	2.7167742898197
1	24707	472.237406547456	2.7168538159229
1	24714	472.329300147019	2.7184424078717
1	24827	476.419414332954	2.6972032653186
1	24844	476.97664610605	2.6961487747852
1	24873	477.355738068849	2.6961025025206
1	24882	477.407546001998	2.6979045697669
1	24893	477.604054445359	2.6988883113585
1	24912	478.275451535027	2.6971904910857
1	24939	478.574537517887	2.6975944158996
1	24942	478.586652091229	2.699615616847
1	24949	478.685255910697	2.7011485815248
1	24992	479.243886592427	2.7000866076785
1	25003	479.32964386821	2.7016897798127
1	25026	479.772054702589	2.7012828014824
1	25029	479.789743996362	2.7032674546079
1	25032	479.885167825042	2.7048137492618
1	25053	480.276144568191	2.704693986348
1	25068	480.4786029581	2.7056355725239
1	25071	480.487316444848	2.7076677270613
1	25074	480.489684356976	2.7097355934757
1	25091	480.982560849102	2.7090379279027
1	25140	482.342346914321	2.7034740124769
1	25143	482.362348110508	2.705435042996
1	25182	482.66288297906	2.7058223162701
1	25211	483.429724906393	2.7035987500625
1	25294	485.365549297478	2.6948760617502
1	25305	485.396715541203	2.6967632002629
1	25312	485.569356201439	2.6978638237141
1	25321	486.057435601957	2.6972121069939
1	25324	486.075642014339	2.6991683733893
1	25335	486.253512517238	2.7002375637409
1	25354	486.428621588875	2.701321307344
1	25379	486.723552106391	2.7017389939506
1	25446	487.676518355276	2.6985100788496
1	25537	489.035204526754	2.6930576527195
1	25568	489.339160702097	2.6934284149851
1	25575	489.351250178722	2.6954053954461
1	25580	489.415802188218	2.6970931345048
1	25583	489.422201109842	2.6991010971804
1	25588	489.431919162826	2.7010906895106
1	25597	489.552308091868	2.702469129717
1	25612	489.78432454065	2.7032306541083
1	25681	491.065370066292	2.6982151069238
1	25684	491.07402174807	2.7002039229847
1	25699	491.443763099201	2.7002072254036
1	25710	491.570649297391	2.7015445326081
1	25753	492.328444718	2.6994174605557
1	25772	492.543716173132	2.7002679281619
1	25787	493.354787459234	2.6978556483755
1	25794	493.62713134913	2.6983930084222
1	25843	495.410429447772	2.6906982993593
1	25846	495.422222963298	2.6926527276489
1	25849	495.429979730227	2.6946290184678
1	25854	495.444638104855	2.6965676833448
1	25857	495.466457730496	2.6984672305047
1	25860	495.468672628843	2.700473458596
1	25903	496.527776716111	2.6967272784934
1	25926	497.197794067252	2.6951044755013
1	25953	497.689318773367	2.6944520394874
1	25968	497.755169343507	2.6961045965027
1	25983	498.025017038151	2.696651682253
1	25988	498.045270019762	2.6985498726786
1	26013	498.37541501097	2.6987687584276
1	26016	498.392282099433	2.7006838756212

