file 4706540 1638631014                                         
version 2
run Sim_1-16-20211204-16:16:45-4972
attr configname Sim_1
attr datetime 20211204-16:16:45
attr experiment Sim_1
attr inifile omnetpp.ini
attr iterationvars $0=100
attr iterationvarsf 100-
attr measurement $0=100
attr network Network
attr processid 4972
attr repetition 1
attr replication #1
attr resultdir results
attr runnumber 16
attr seedset 1
param **.server.p1 0.1
param **.server.p2 0.5
param **.clients.num_clients 100
param **.processor.service_rate 100
param **.disk.service_rate 15Hz
param **.webServer.serv_rate_w 10Hz

vector 0 Network.clients throughput1:vector ETV
attr source service_rate
0	639 1421062 466897 1749852 100.009393645863 372.989763007721 32768 10.917640132073 10085626.973001 58801481.104194 1.5758091940223e+14
0	1421701 1434449 1749913 3033746 373.001402129 647.490543930194 32768 13.114178437696 107886503.39842 155588137.00355 1.1702622153563e+16
0	2856150 1434388 3033813 4313952 647.502278075871 920.87310920323 32768 11.105171673411 1654473.1991886 38982383.705718 9280064136335.4
0	4290538 416000 4313973 4684499 920.878548957182 999.996795012936 9501 11.740758797951 986536.73320199 13111565.822732 3577025293126.5

