file 4710238 1638631023                                         
version 2
run Sim_1-17-20211204-16:16:54-1780
attr configname Sim_1
attr datetime 20211204-16:16:54
attr experiment Sim_1
attr inifile omnetpp.ini
attr iterationvars $0=100
attr iterationvarsf 100-
attr measurement $0=100
attr network Network
attr processid 1780
attr repetition 2
attr replication #2
attr resultdir results
attr runnumber 17
attr seedset 2
param **.server.p1 0.1
param **.server.p2 0.5
param **.clients.num_clients 100
param **.processor.service_rate 100
param **.disk.service_rate 15Hz
param **.webServer.serv_rate_w 10Hz

vector 0 Network.clients throughput1:vector ETV
attr source service_rate
0	639 1420714 470519 1741976 100.004503157812 371.681327081434 32768 10.486772308523 8673478.2382431 50388226.339147 1.021717625874e+14
0	1421353 1434403 1741987 3016598 371.682772320208 643.705560769125 32768 11.731078058415 3952803.5259007 47410603.449553 38624622807333
0	2855756 1434530 3016613 4304666 643.709944962333 919.486051347928 32768 10.311794779468 10476908.8928 56335692.949665 1.5808982851415e+14
0	4290286 419950 4304855 4681709 919.52192794595 999.998955454953 9593 12.060015225515 1532686.8460217 12572247.285164 3325108612748.6

