version 2
run Sim_1-0-20211204-12:36:41-1184
attr configname Sim_1
attr datetime 20211204-12:36:41
attr experiment Sim_1
attr inifile omnetpp.ini
attr iterationvars ""
attr iterationvarsf ""
attr measurement ""
attr network Network
attr processid 1184
attr repetition 0
attr replication #0
attr resultdir results
attr runnumber 0
attr seedset 0
param **.server.p1 1
param **.server.p2 0
param **.clients.num_clients 10
param **.processor.service_rate 100Hz
param **.disk.service_rate 10Hz
param **.webServer.serv_rate_w 1Hz
param **.processor.numrngs 2

vector 0 Network.clients throughput1:vector ETV
attr source service_rate
vector 1 Network.clients throughput:vector ETV
attr source throughput_s
0	2982	1.00005663958	324.49045371946
0	2985	1.001362560142	765.7433607359
0	2988	1.002028237939	1502.228261941
0	2991	1.003772797128	573.2107034862
0	2994	1.003911798522	7194.1724555654
0	2997	1.004616727314	1418.5829992315
0	3000	1.004885533509	3720.1523573517
0	3003	1.005866485969	1019.4173935809
0	3006	1.006696881375	1204.245583218
0	3009	1.009305772093	383.30467163707
0	3012	1.010754144814	690.43001535514
0	3015	1.011355581136	1662.6864115467
0	3018	1.011474359342	8419.0529026849
0	3021	1.013303724818	546.63762551513
0	3024	1.015149883547	541.66523402983
0	3027	1.015649039571	2003.3816119987
0	3030	1.015691769396	23402.857371871
0	3033	1.016897551657	829.33713021343
0	3036	1.018617275408	581.48874167639
0	3039	1.018772306248	6450.3294957313
0	3042	1.020901366972	469.69068976165
0	3045	1.022006525738	904.84736742341
0	3048	1.022551996792	1833.2778479571
0	3051	1.024525627612	506.68037297877
0	3054	1.02621525795	591.84543358975
0	3057	1.026297725829	12125.933298224
0	3060	1.02683640708	1856.3853821599
0	3063	1.02919018409	424.84908117953
0	3066	1.031188809935	500.34377495003
0	3069	1.031302485145	8796.9927656171
0	3072	1.031671969486	2706.4746432651
0	3075	1.036545276122	205.19948254699
0	3078	1.036742302268	5075.4685116766
0	3081	1.038246840423	664.65579266084
0	3084	1.038824300197	1731.7223554346
0	3087	1.039035473984	4735.436221542
0	3090	1.039689746187	1528.4158419305
0	3093	1.040775599452	920.93474526689
0	3096	1.04092759585	6579.1032758553
0	3099	1.043005216786	481.31975504891
0	3102	1.044068950292	940.08508179867
0	3105	1.04550483016	696.43709218716
0	3108	1.046189146947	1461.3115139027
0	3111	1.047109671234	1086.3374428273
0	3114	1.048724327813	619.32674291602
0	3117	1.049031345543	3257.1408823849
0	3120	1.049225005795	5163.6822201388
0	3123	1.049511753183	3487.3900926344
0	3126	1.049551412406	25214.815731513
0	3129	1.049630565871	12633.685714201
0	3132	1.050967350523	748.06364548237
0	3135	1.051914517261	1055.780318164
0	3138	1.052162849338	4026.8660097423
0	3141	1.053073410999	1098.2232646406
0	3144	1.055630320787	391.09709880777
0	3147	1.055796496756	6017.7172789647
0	3150	1.058881674633	324.13041966073
0	3153	1.059111480948	4351.4905149582
0	3156	1.059724511816	1631.2392282341
0	3159	1.059819228509	10557.80104147
0	3162	1.060253661315	2301.8519462363
0	3165	1.06027737644	42167.182336167
0	3168	1.060499797756	4495.9719598098
0	3171	1.061239337887	1352.1916635515
0	3174	1.06148718609	4034.7276594941
0	3177	1.061615370869	7801.2382421785
0	3180	1.061700851055	11698.617501838
0	3183	1.062066663996	2733.6375724335
0	3186	1.064694590991	380.52807475346
0	3189	1.064932300465	4206.8159218593
0	3192	1.064972954868	24597.58171827
0	3195	1.065820061174	1180.4893824034
0	3198	1.066097291009	3607.1153741443
0	3201	1.066202580537	9497.6206940542
0	3204	1.066510153333	3251.2628327507
0	3207	1.066867183908	2800.880568842
0	3210	1.067048649656	5510.6818285068
0	3213	1.069624327453	388.24731927446
0	3216	1.071221911526	625.94514861566
0	3219	1.074612351787	294.9469458297
0	3222	1.074704438084	10859.379001851
0	3225	1.07473150683	36942.97475029
0	3228	1.076673001833	515.0669965438
0	3231	1.077307355493	1576.4077092264
0	3234	1.078194759686	1126.8822120609
0	3237	1.078393444936	5033.0862507408
0	3240	1.079536765551	874.64529798581
0	3243	1.081155085722	617.92469618795
0	3246	1.082503229844	741.76045697286
0	3249	1.083374479585	1147.7765248483
0	3252	1.084902240525	654.55266842992
0	3255	1.085072396762	5876.9517804981
0	3258	1.087091446481	495.28250373908
0	3261	1.087367477655	3622.7792155099
0	3264	1.088422052674	948.24927765523
0	3267	1.09317756421	210.28232029926
0	3270	1.096077082067	344.88492546642
0	3273	1.096760602384	1463.0143027629
0	3276	1.099014604223	443.65536118802
0	3279	1.099101816862	11466.227962669
0	3282	1.099397134974	3386.1790366586
0	3285	1.100953994921	642.31853477055
0	3288	1.10307873289	470.64627007661
0	3291	1.103206646858	7817.7545082489
0	3294	1.1041017507	1117.1888143901
0	3297	1.104732311497	1585.8899011129
0	3300	1.105224876675	2030.1881754215
0	3303	1.107218855312	501.50988653747
0	3306	1.108000922279	1278.6628795178
0	3309	1.109936352423	516.68100918036
0	3312	1.111025491089	918.15673358896
0	3315	1.111978335918	1049.4888250057
0	3318	1.112049385555	14074.667263958
0	3321	1.112563576345	1944.8034065332
0	3324	1.114178462194	619.2388153127
0	3327	1.114633978042	2195.3133011521
0	3330	1.115043700481	2440.6766747769
0	3333	1.115409718147	2732.1085643992
0	3336	1.118158859689	363.74991419049
0	3339	1.119459902101	768.61445159407
0	3342	1.119841199642	2622.6237845053
0	3345	1.122380115406	393.86891608587
0	3348	1.124806620711	412.11531577509
0	3351	1.126152881859	742.79793447623
0	3354	1.126239107749	11597.444804571
0	3357	1.126359599352	8299.3335228514
0	3360	1.126369884775	97224.975579517
0	3363	1.12948619726	320.89208152693
0	3366	1.130098057528	1634.3600856266
0	3369	1.13133516034	808.3402529684
0	3372	1.134226430507	345.8687504937
0	3375	1.136105137849	532.28088145727
0	3378	1.137084093197	1021.4970499349
0	3381	1.13723685704	6546.0516072511
0	3384	1.1385256435	775.92373215963
0	3387	1.139206686945	1468.3351074615
0	3390	1.139959064161	1329.1205245641
0	3393	1.140671446669	1403.7402501747
0	3396	1.143916825749	308.1304141518
0	3399	1.144055857997	7192.5759267016
0	3402	1.144495130338	2276.4920680494
0	3405	1.144879443485	2602.0447330676
0	3408	1.1461135382	810.31057652654
0	3411	1.146480528903	2724.864667757
0	3414	1.146910409614	2326.2267285121
0	3417	1.147605828367	1437.9825043343
0	3420	1.148831365375	815.96883119175
0	3423	1.15062284218	558.19868680912
0	3426	1.151410937853	1268.8814750034
0	3429	1.151996263466	1708.4507798568
0	3432	1.153453566538	686.19906127529
0	3435	1.153760153059	3261.721998535
0	3438	1.157020729065	306.69427676577
0	3441	1.157672597354	1534.0522263079
0	3444	1.158769831666	911.38236296788
0	3447	1.159781607674	988.36105234075
0	3450	1.160269522702	2049.5371993338
0	3453	1.164204969787	254.10073579988
0	3456	1.165653694595	690.26221852342
0	3459	1.166182550558	1890.8740185652
0	3462	1.166350148783	5966.6503031282
0	3465	1.166923628173	1743.7418282809
0	3468	1.168096426748	852.66133615485
0	3471	1.168500348701	2475.7257994343
0	3474	1.168893065755	2546.3625524141
0	3477	1.169725304952	1201.5776276877
0	3480	1.172589523993	349.13530902681
0	3483	1.173385225544	1256.7526087429
0	3486	1.174695961635	762.93008704526
0	3489	1.174878704166	5472.1798725662
0	3492	1.177442513589	390.04459185967
0	3495	1.17786851861	2347.3901731313
0	3498	1.178426927043	1790.8039006997
0	3501	1.17883114282	2473.9261970965
0	3504	1.178917445593	11587.113197394
0	3507	1.179535607079	1617.7002654611
0	3510	1.179547686796	82783.396332878
0	3513	1.180177921239	1586.7111217214
0	3516	1.180284711024	9364.191528244
0	3519	1.180512160737	4396.5762225429
0	3522	1.181806253754	772.7419797985
0	3525	1.182550014559	1344.518282326
0	3528	1.184525503959	506.20367793419
0	3531	1.186615169298	478.54552656673
0	3534	1.186618484056	301681.14836739
0	3537	1.186825674293	4826.4822439486
0	3540	1.18825507444	699.59416339699
0	3543	1.18869220216	2287.6609152126
0	3546	1.189499848027	1238.1664301886
0	3549	1.193130319571	275.44631265673
0	3552	1.195272526639	466.80828148589
0	3555	1.19578277096	1959.8454286373
0	3558	1.195813814528	32212.79203473
0	3561	1.196094724074	3559.8647829505
0	3564	1.196995261391	1110.4481525889
0	3567	1.197783669792	1268.3781638192
0	3570	1.198946322194	860.10229564726
0	3573	1.199069218108	8136.9670272357
0	3576	1.199121249436	19219.190407748
0	3579	1.199385630281	3782.422285548
0	3582	1.200310948207	1080.7096370896
0	3585	1.202230527227	520.94755651164
0	3588	1.203356295935	888.28192939966
0	3591	1.203698416582	2922.9454836147
0	3594	1.204115393756	2398.2128096057
0	3597	1.205190431123	930.20022437974
0	3600	1.207167705414	505.74672646669
0	3603	1.207331086734	6120.6507573816
0	3606	1.207359444303	35263.953690812
0	3609	1.207426421706	14930.408693213
0	3612	1.20782064137	2536.6568218677
0	3615	1.208255592347	2299.1096764452
0	3618	1.211126213504	348.35666056508
0	3621	1.213132983092	498.31331209111
0	3624	1.213417626896	3513.1627175696
0	3627	1.214314748638	1114.6759165268
0	3630	1.214466964335	6569.6246820064
0	3633	1.215520638506	949.05999171541
0	3636	1.21614113916	1611.6018469176
0	3639	1.216705248466	1772.7060861499
0	3642	1.220728652186	248.54577606246
0	3645	1.221187658104	2178.621147974
0	3648	1.22169298671	1978.9103330517
0	3651	1.223158607175	682.30488307217
0	3654	1.225809992489	377.16132571141
0	3657	1.226826273915	983.97941201771
0	3660	1.228811159988	503.80725302212
0	3663	1.23015451647	744.40404568651
0	3666	1.230243392703	11251.601989027
0	3669	1.231261549123	982.1673569568
0	3672	1.233327819187	483.96384258897
0	3675	1.234525418511	835.0038113415
0	3678	1.234531911031	154023.39923481
0	3681	1.235810297579	782.23601583142
0	3684	1.236447020953	1570.5407416063
0	3687	1.237534495911	919.56140474179
0	3690	1.238007696664	2113.2679812113
0	3693	1.241962374019	252.86512912
0	3696	1.242345261997	2611.7299509466
0	3699	1.242688971411	2909.4344212521
0	3702	1.243046562425	2796.4908536544
0	3705	1.243070336335	42062.916869796
0	3708	1.243472969912	2483.6478056573
0	3711	1.245089828453	618.48329624527
0	3714	1.247210925547	471.45413702594
0	3717	1.247383557129	5792.6828243977
0	3720	1.249014996502	612.95566145442
0	3723	1.253054216434	247.57255530398
0	3726	1.256156177667	322.37669167544
0	3729	1.256252991204	10329.134034221
0	3732	1.257231627826	1021.8297348778
0	3735	1.257360515131	7758.7160349113
0	3738	1.25853222567	853.45310698789
0	3741	1.261041505901	398.52065450716
0	3744	1.262246088579	830.16302514023
0	3747	1.264555597672	432.99244979418
0	3750	1.265784343832	813.83774171876
0	3753	1.267733291086	513.09751864634
0	3756	1.268589499027	1167.9405809202
0	3759	1.269871520374	780.01821291046
0	3762	1.270187496831	3164.7927491003
0	3765	1.270834332882	1545.9868052407
0	3768	1.271053606689	4560.5082234013
0	3771	1.272837374669	560.61102744988
0	3774	1.272995301392	6332.0505928563
0	3777	1.273823028942	1208.1269978268
0	3780	1.274227602457	2471.7386653449
0	3783	1.274313693501	11615.610097608
0	3786	1.276842578977	395.43111362311
0	3789	1.278656596909	551.26246679242
0	3792	1.279285635864	1589.7266648613
0	3795	1.280633914588	741.68640519169
0	3798	1.281608969882	1025.5828629961
0	3801	1.282856900805	801.32640482698
0	3804	1.284364739069	663.20110311248
0	3807	1.284443407453	12711.586906374
0	3810	1.285496472393	949.60905260031
0	3813	1.286312791519	1225.011111647
0	3816	1.286789073675	2099.5957698655
0	3819	1.288810490658	494.70248266931
0	3822	1.291674313057	349.1836645838
0	3825	1.293199795434	655.53035228541
0	3828	1.293547662447	2874.6617604699
0	3831	1.293739164998	5221.8625536743
0	3834	1.294405010412	1501.8500975964
0	3837	1.294799525067	2534.7600838808
0	3840	1.300469613889	176.36408024509
0	3843	1.302807796071	427.68267062263
0	3846	1.305574565516	361.43235635595
0	3849	1.310360331227	208.95297855921
0	3852	1.310522959199	6149.0036904598
0	3855	1.311164477587	1558.8017720234
0	3858	1.312122401333	1043.9244294504
0	3861	1.312736989938	1627.1046873705
0	3864	1.313874922294	878.78685822341
0	3867	1.314679946525	1242.1986338943
0	3870	1.314832634795	6549.2915729545
0	3873	1.317037353225	453.57265870908
0	3876	1.317075730364	26057.179509916
0	3879	1.317127067098	19479.22904484
0	3882	1.317991487555	1156.8444405753
0	3885	1.318072734463	12308.160699482
0	3888	1.31809891516	38196.080112
0	3891	1.321010181149	343.49317574499
0	3894	1.323672146669	375.66226627909
0	3897	1.324568232878	1115.9640556414
0	3900	1.324878595995	3222.0323396224
0	3903	1.325583720584	1418.1890911196
0	3906	1.325645938826	16072.456692042
0	3909	1.325829973245	5433.7661695772
0	3912	1.32643702351	1647.3100460635
0	3915	1.32673015653	3411.4205216458
0	3918	1.326799714264	14376.546539023
0	3921	1.327040203748	4158.1859770633
0	3924	1.32772709246	1455.8399090419
0	3927	1.328958197009	812.27869786711
0	3930	1.329892527588	1070.2849959918
0	3933	1.333160218975	306.02645157323
0	3936	1.33344935798	3458.5441006135
0	3939	1.334642187756	838.34258677996
0	3942	1.335404353339	1312.0508486671
0	3945	1.335492729606	11315.255033345
0	3948	1.336000069337	1971.0658142798
0	3951	1.336545873798	1832.1579823071
0	3954	1.336950453355	2471.7017523453
0	3957	1.337582518724	1582.1148397706
0	3960	1.338198328579	1623.8778770437
0	3963	1.340260922432	484.82642307186
0	3966	1.340915732822	1527.1596408237
0	3969	1.341362602491	2237.7889334888
0	3972	1.344044833424	372.82397563044
0	3975	1.344193316732	6734.7637486633
0	3978	1.344800059734	1648.1442665242
0	3981	1.345277171722	2095.9439820238
0	3984	1.346087402093	1234.216879288
0	3987	1.346390595119	3298.2288979167
0	3990	1.34659928772	4791.7367228558
0	3993	1.348519664111	520.73125075198
0	3996	1.349149959183	1586.5584936701
0	3999	1.350314299974	858.85507725032
0	4002	1.353622378089	302.29032242789
0	4005	1.355117218112	668.96790600582
0	4008	1.355339404632	4500.723086171
0	4011	1.355457915176	8438.0677553889
0	4014	1.35592869785	2124.122350348
0	4017	1.358716663191	358.68451637254
0	4020	1.359108774327	2550.2973728346
0	4023	1.359343911064	4252.8445905924
0	4026	1.359834934908	2036.5609780856
0	4029	1.360153995497	3134.2009463914
0	4032	1.36099152098	1193.993520553
0	4035	1.365461557162	223.71183571775
0	4038	1.365822600682	2769.7491981022
0	4041	1.367536406785	583.4965800679
0	4044	1.368833552783	770.92324344511
0	4047	1.36916176012	3046.8544949073
0	4050	1.369552145074	2561.5741327982
0	4053	1.370722845467	854.18951422527
0	4056	1.371453252184	1369.1002241974
0	4059	1.371587970412	7422.9004853003
0	4062	1.372550765677	1038.6424158411
0	4065	1.372962950433	2426.0965148357
0	4068	1.376264017374	302.93236031653
0	4071	1.376532172141	3729.1897182645
0	4074	1.376602704527	14177.884185004
0	4077	1.376645789433	23209.984489696
0	4080	1.376906784465	3831.490554962
0	4083	1.377117528638	4745.0896779955
0	4086	1.377748985126	1583.6403917034
0	4089	1.378781378847	968.62270629792
0	4092	1.378911901794	7661.4880600267
0	4095	1.380135992046	816.9332272405
0	4098	1.381026851621	1122.5113677428
0	4101	1.382220120142	838.0343421462
0	4104	1.384687053912	405.36151077943
0	4107	1.384891506665	4891.1055748904
0	4110	1.38519233462	3324.1591526958
0	4113	1.386349922019	863.86565788801
0	4116	1.386540281593	5253.2162107066
0	4119	1.387630600229	917.16308149024
0	4122	1.3882337692	1657.910217666
0	4125	1.388639388826	2465.3639417339
0	4128	1.389047261711	2451.7442487014
0	4131	1.389343509234	3375.5556497936
0	4134	1.389355592253	82760.773611297
0	4137	1.390272468638	1090.6595658476
0	4140	1.393174408707	344.59705446109
0	4143	1.393176618844	452460.63931783
0	4146	1.394759780796	631.64731740597
0	4149	1.397010983076	444.20708386987
0	4152	1.398353643158	744.79014711633
0	4155	1.39909138058	1355.4958311441
0	4158	1.402187018293	323.03521687972
0	4161	1.402896518929	1409.4420064762
0	4164	1.404301230043	711.89014597631
0	4167	1.404494311095	5179.1721126525
0	4170	1.407285060699	358.32666555491
0	4173	1.408358090763	931.94033750764
0	4176	1.408420406799	16047.233813139
0	4179	1.410832344044	414.60448528378
0	4182	1.412923005709	478.3174708472
0	4185	1.414586280902	601.22342003811
0	4188	1.417168922194	387.20050016144
0	4191	1.417594537974	2349.53694621
0	4194	1.417953469215	2786.0489301905
0	4197	1.418793069615	1191.0427865446
0	4200	1.419690318958	1114.5173945254
0	4203	1.420582029781	1121.4397921466
0	4206	1.421267219649	1459.4494850295
0	4209	1.423084219388	550.35781158139
0	4212	1.423171498351	11457.514681974
0	4215	1.423355462163	5435.85169892
0	4218	1.423580858569	4436.6279735623
0	4221	1.423608073381	36744.696233801
0	4224	1.423769752453	6185.0924033013
0	4227	1.42379200636	44935.929677427
0	4230	1.424225259757	2308.1180826841
0	4233	1.424454141207	4369.074033741
0	4236	1.424621524781	5974.3018750454
0	4239	1.424903818537	3542.4092058203
0	4242	1.424950925059	21228.482968876
0	4245	1.425166265242	4643.8151304069
0	4248	1.425733104054	1764.1699524273
0	4251	1.426499380223	1305.012527409
0	4254	1.426660246525	6216.34231388
0	4257	1.42671973212	16810.79259609
0	4260	1.426921298998	4961.1325527401
0	4263	1.426972889054	19383.580432632
0	4266	1.429516076313	393.20738040863
0	4269	1.431002530404	672.74193401241
0	4272	1.431180978252	5603.8781706126
0	4275	1.433016890806	544.68825207456
0	4278	1.433407366772	2560.9770820056
0	4281	1.43393569398	1892.766423644
0	4284	1.435040059475	905.49732360119
0	4287	1.439081047969	247.46420374242
0	4290	1.439503402094	2367.6813858513
0	4293	1.441508387265	498.75680601729
0	4296	1.442238512703	1369.6276666366
0	4299	1.442552783212	3181.972127076
0	4302	1.442672004797	8387.74287391
0	4305	1.443802624121	884.4709963581
0	4308	1.444020142377	4597.3152708617
0	4311	1.445497073119	677.0798193596
0	4314	1.447245293119	572.01038770864
0	4317	1.447467255071	4505.2766520994
0	4320	1.447539092592	13920.302177465
0	4323	1.448031907589	2029.1590273987
0	4326	1.448343781547	3206.4235385758
0	4329	1.448718077709	2671.6811485767
0	4332	1.449036962826	3135.9255941694
0	4335	1.449730088885	1442.7390039883
0	4338	1.450712746687	1017.6482575773
0	4341	1.451778273343	938.50303450316
0	4344	1.453328944866	644.88190127162
0	4347	1.45391909529	1694.4832356843
0	4350	1.456575898069	376.39225911093
0	4353	1.457447271779	1147.6132324442
0	4356	1.460744049668	303.32647016852
0	4359	1.462449923966	586.2096645529
0	4362	1.465278183851	353.57429679769
0	4365	1.466114682486	1195.4592131522
0	4368	1.468536117507	412.97825104843
0	4371	1.469205457645	1494.0087157899
0	4374	1.470104884085	1111.8196614278
0	4377	1.470143097066	26169.117766552
0	4380	1.470222158146	12648.448516008
0	4383	1.470817208225	1680.5308247006
0	4386	1.472136092623	758.21656660465
0	4389	1.472230941661	10543.069503773
0	4392	1.472231729275	1269657.4718073
0	4395	1.473245439526	986.47517770835
0	4398	1.473258404993	77127.958445307
0	4401	1.474468829382	826.15651922394
0	4404	1.474644798552	5682.8136428671
0	4407	1.475494621981	1176.7150279402
0	4410	1.476396735669	1108.5077338944
0	4413	1.476506573039	9104.3694873612
0	4416	1.477645344247	878.1395182587
0	4419	1.478152183895	1973.0106039376
0	4422	1.478940675115	1268.2449400007
0	4425	1.478987293402	21450.809636141
0	4428	1.479387036458	2501.606932229
0	4431	1.479420047111	30293.251090792
0	4434	1.480462027003	959.71141830825
0	4437	1.480500705235	25854.335844513
0	4440	1.480805883473	3276.7736210601
0	4443	1.481540834194	1360.6354432027
0	4446	1.482076155095	1868.0384011384
0	4449	1.482773090359	1434.8534959482
0	4452	1.48368059377	1101.9242328776
0	4455	1.48452930788	1178.2530633313
0	4458	1.484637586701	9235.4164070553
0	4461	1.487792477785	316.9681530597
0	4464	1.48989089127	476.55050215234
0	4467	1.490192324783	3317.4811587722
0	4470	1.491566018563	727.96427745345
0	4473	1.493157239758	628.44813979492
0	4476	1.494590172166	697.86962344982
0	4479	1.49612446754	651.76498407405
0	4482	1.49702894238	1105.6139494162
0	4485	1.497137849808	9182.1101495483
0	4488	1.499572405939	410.75249293564
0	4491	1.500601460333	971.76592979982
0	4494	1.50167553292	931.0357717937
0	4497	1.502606991293	1073.585281948
0	4500	1.505967681163	297.55795348055
0	4503	1.505999525964	31402.300174525
0	4506	1.507546390697	646.46893724223
0	4509	1.507978828664	2312.470403414
0	4512	1.510655311328	373.62468789747
0	4515	1.512354367711	588.56198652708
0	4518	1.512688915302	2989.1113458952
0	4521	1.513323248712	1576.4580333235
0	4524	1.514699450463	726.63764544215
0	4527	1.514713293589	72238.019071704
0	4530	1.515238959923	1902.3474309085
0	4533	1.515699288591	2172.3609010595
0	4536	1.517339772739	609.57614324963
0	4539	1.518084961763	1341.9413971401
0	4542	1.518873565965	1268.0632406775
0	4545	1.520786791895	522.67742367468
0	4548	1.52117045341	2606.464190186
0	4551	1.52542928572	234.80614572495
0	4554	1.525495325709	15142.340499178
0	4557	1.526646623337	868.58513009983
0	4560	1.527304634071	1519.7320474106
0	4563	1.528385782655	924.94224642115
0	4566	1.529962130428	634.37777952822
0	4569	1.531105998924	874.22636736382
0	4572	1.531375763826	3706.9314524838
0	4575	1.531400905672	39774.326833439
0	4578	1.531643495614	4122.1824439861
0	4581	1.533585139193	515.027583237
0	4584	1.536868450753	304.57054766987
0	4587	1.53766424251	1256.6101510901
0	4590	1.538447749887	1276.3121692982
0	4593	1.538765429764	3147.8229261591
0	4596	1.539438399436	1485.9510637799
0	4599	1.5415963862	463.39487186957
0	4602	1.546008489791	226.64925683972
0	4605	1.551221436127	191.83009675241
0	4608	1.553163379097	514.94818099627
0	4611	1.553848990226	1458.5527534516
0	4614	1.554118451626	3711.1066742769
0	4617	1.554436974438	3139.4925648214
0	4620	1.555134782982	1433.0578331239
0	4623	1.555972290652	1194.0189156715
0	4626	1.556557748325	1708.0654095382
0	4629	1.556950575159	2545.6509419619
0	4632	1.557269017768	3140.2832778575
0	4635	1.560235113926	337.1434864992
0	4638	1.560384854238	6678.2283717961
0	4641	1.56075150411	2727.397652003
0	4644	1.561589710653	1193.0233763398
0	4647	1.562908502523	758.26976397724
0	4650	1.565209760205	434.5449915591
0	4653	1.566419642162	826.52691381528
0	4656	1.566830141927	2436.0549877538
0	4659	1.568401063434	636.56904278413
0	4662	1.569266568082	1155.3952971954
0	4665	1.56969953071	2309.6681684037
0	4668	1.569731438098	31340.703914717
0	4671	1.570764020165	968.44602667305
0	4674	1.572305158916	648.87084264874
0	4677	1.574086895983	561.25003993084
0	4680	1.574160293163	13624.501649791
0	4683	1.574342546888	5486.8563043087
0	4686	1.574909521638	1763.7469746228
0	4689	1.575298464739	2571.0701576373
0	4692	1.575989982307	1446.0948590101
0	4695	1.577690553195	588.03782133191
0	4698	1.579790475611	476.20806958422
0	4701	1.580268271636	2092.9433224146
0	4704	1.582165687473	527.0325990222
0	4707	1.582949185484	1276.3274264394
0	4710	1.583105772661	6386.2189686196
0	4713	1.583321646407	4632.3372736581
0	4716	1.583417386973	10444.893338107
0	4719	1.584555993546	878.26649144067
0	4722	1.585424207651	1151.7896268225
0	4725	1.587320912579	527.23013750719
0	4728	1.58854593884	816.30903094575
0	4731	1.588633765996	11386.000020313
0	4734	1.590811015382	459.29511172681
0	4737	1.591199609207	2573.3810875662
0	4740	1.59137695713	5638.6338395404
0	4743	1.591975720146	1670.1098319005
0	4746	1.592627212618	1534.9371527351
0	4749	1.592927255998	3332.8514030205
0	4752	1.592977141789	20045.788188464
0	4755	1.593822542665	1182.8707875623
0	4758	1.593849349248	37304.269626606
0	4761	1.598821813946	201.10751121113
0	4764	1.599885144581	940.4412579536
0	4767	1.602368668519	402.65365865783
0	4770	1.60265821987	3453.6188366809
0	4773	1.605540351549	346.96541011165
0	4776	1.605572929387	30695.714061811
0	4779	1.606584250465	988.80565406351
0	4782	1.606771471559	5341.2784779476
0	4785	1.606834896341	15766.70772002
0	4788	1.606909859785	13339.835346946
0	4791	1.607179616563	3707.0430904984
0	4794	1.608082398176	1107.6876019627
0	4797	1.61217766833	244.1841349644
0	4800	1.612358371112	5533.949112084
0	4803	1.613330002617	1029.1967632318
0	4806	1.613572259347	4127.8522995006
0	4809	1.617096986902	283.70987101725
0	4812	1.617118183976	47176.322543385
0	4815	1.61857984216	684.15448354921
0	4818	1.619942490328	733.86514838069
0	4821	1.623991722316	246.96041199011
0	4824	1.625542804386	644.71121118691
0	4827	1.625631764843	11240.94944791
0	4830	1.626161999674	1885.9568280606
0	4833	1.626285215368	8115.849268357
0	4836	1.629463722674	314.61308838659
0	4839	1.629875956359	2425.8085556497
0	4842	1.629880466281	221733.3248779
0	4845	1.630072038574	5219.9615317023
0	4848	1.630146204554	13483.270901295
0	4851	1.633407871782	306.59166925903
0	4854	1.634303178171	1116.9360704741
0	4857	1.634544678134	4140.7873838887
0	4860	1.63479950356	3924.2551879419
0	4863	1.635433720383	1576.7478309228
0	4866	1.636900748531	681.6501792166
0	4869	1.637707960086	1238.8326130936
0	4872	1.638088670809	2626.6662313055
0	4875	1.638093397231	211576.53717759
0	4878	1.638556697324	2158.428230663
0	4881	1.639512207212	1046.5616447917
0	4884	1.639865968485	2826.7650427637
0	4887	1.640476756403	1637.2295039405
0	4890	1.640578266687	9851.2186213566
0	4893	1.641105291601	1897.4435049194
0	4896	1.641979732893	1143.5873501728
0	4899	1.644159055833	458.85810755518
0	4902	1.64502478571	1155.0947086004
0	4905	1.645059502034	28804.893052617
0	4908	1.646622428459	639.82538397481
0	4911	1.646627889659	183109.9392075
0	4914	1.648467629095	543.55523419894
0	4917	1.648945097102	2094.3811634274
0	4920	1.648962387118	57836.846420501
0	4923	1.649464375242	1992.078999861
0	4926	1.649611148474	6813.2314480886
0	4929	1.64961901897	127056.795404
0	4932	1.650806461717	842.14586558084
0	4935	1.651712772552	1103.3742082538
0	4938	1.651946285534	4282.4171548629
0	4941	1.652534149067	1701.0750690671
0	4944	1.65263664774	9756.2238683812
0	4947	1.653901599258	790.54413214278
0	4950	1.654008470543	9357.0503994595
0	4953	1.65405985824	19459.910803164
0	4956	1.654252323877	5195.7326803226
0	4959	1.654372075123	8350.6438003994
0	4962	1.655492938436	892.169445107
0	4965	1.655546027384	18836.312220766
0	4968	1.65577037643	4457.3401038665
0	4971	1.655985699089	4644.1930665551
0	4974	1.656999534312	986.35357828754
0	4977	1.658559668646	640.97044607442
0	4980	1.66175294165	313.1583171083
0	4983	1.664799674002	328.22049476829
0	4986	1.666432380198	612.4800668056
0	4989	1.66687186082	2275.4131807887
0	4992	1.66713280047	3832.3037529942
0	4995	1.668538020708	711.63222173861
0	4998	1.669128311237	1694.0810514004
0	5001	1.670014955397	1127.8481775598
0	5004	1.670248574981	4280.4630625487
0	5007	1.670754657074	1975.9640062981
0	5010	1.670849435573	10550.916194611
0	5013	1.671899209193	952.5863299937
0	5016	1.672179735457	3564.7286130756
0	5019	1.672887575265	1412.7490269663
0	5022	1.673215630812	3048.2642623933
0	5025	1.673660236675	2249.1831152483
0	5028	1.674315105664	1527.0229874941
0	5031	1.676214023239	526.61580110975
0	5034	1.677747038567	652.30919856791
0	5037	1.677832713619	11672.009256557
0	5040	1.678034885904	4946.2763899612
0	5043	1.678630355749	1679.3461640362
0	5046	1.678881085789	3988.353370023
0	5049	1.679760944588	1136.5460016272
0	5052	1.68314224595	295.74412125411
0	5055	1.684734242172	628.14219417161
0	5058	1.685289346504	1801.4631526961
0	5061	1.685968514646	1472.3894396095
0	5064	1.686525121697	1796.5995906868
0	5067	1.688647984864	471.06192030888
0	5070	1.688877181669	4363.0625653791
0	5073	1.691796809594	342.50939698078
0	5076	1.693553422442	569.27740289419
0	5079	1.693632163454	12699.862176016
0	5082	1.693763257529	7628.1098135061
0	5085	1.694126671804	2751.6805717112
0	5088	1.69452700686	2497.9076526338
0	5091	1.695036125197	1964.1798916388
0	5094	1.698051495343	331.63424441491
0	5097	1.698103158204	19356.264454653
0	5100	1.698505247566	2487.0093429629
0	5103	1.699806931791	768.23547585053
0	5106	1.700802656805	1004.2933399683
0	5109	1.703935415225	319.20750531412
0	5112	1.704282062251	2884.7788239787
0	5115	1.70453702118	3922.2003478058
0	5118	1.70741414608	347.56920007192
0	5121	1.707893617248	2085.6311426843
0	5124	1.709362207045	680.92533534059
0	5127	1.710352109073	1010.2009812228
0	5130	1.711331041985	1021.5204614553
0	5133	1.712842946249	661.41754065455
0	5136	1.714209034846	732.01694399327
0	5139	1.715617036974	710.22619931722
0	5142	1.715750910426	7469.7409012804
0	5145	1.715969357979	4577.7578474408
0	5148	1.716676533839	1414.0754182418
0	5151	1.717488220606	1232.0023445695
0	5154	1.718656219396	856.16527051368
0	5157	1.718705006601	20497.177487417
0	5160	1.721980738612	305.2752779049
0	5163	1.72533171651	298.42035084649
0	5166	1.725998558395	1499.6058623402
0	5169	1.726130304439	7590.3607397881
0	5172	1.726183292937	18872.020112742
0	5175	1.726455063317	3679.5768545491
0	5178	1.726527477086	13809.528406124
0	5181	1.727454313398	1078.9391687105
0	5184	1.728126833125	1486.9452297865
0	5187	1.730213221973	479.2970404144
0	5190	1.730379594127	6010.6212245109
0	5193	1.730538401835	6296.9235725006
0	5196	1.731096303713	1792.4298867479
0	5199	1.732457294008	734.75909686777
0	5202	1.732611008036	6505.5871153152
0	5205	1.735166788768	391.26987205098
0	5208	1.73526413949	10272.137478344
0	5211	1.737316167673	487.32274160973
0	5214	1.737866920837	1815.6954246749
0	5217	1.739615773458	571.80347159739
0	5220	1.740695528566	926.13592896288
0	5223	1.742355761037	602.3252872519
0	5226	1.743415712107	943.43977595117
0	5229	1.744644781487	813.62371911014
0	5232	1.745474086855	1205.8284421957
0	5235	1.746759487491	777.96756279184
0	5238	1.746927247719	5960.8884174859
0	5241	1.7472216211	3397.0462838826
0	5244	1.748467941905	802.3616359353
0	5247	1.74965696794	841.02447765158
0	5250	1.750319642446	1509.0364740846
0	5253	1.751059217279	1352.1282166182
0	5256	1.751395834895	2970.7298503356
0	5259	1.752602573557	828.67983888296
0	5262	1.752889443624	3485.8987222253
0	5265	1.753073631932	5429.2262677173
0	5268	1.753198954081	7979.4354627609
0	5271	1.755177800964	505.34480893437
0	5274	1.755533504294	2811.3315666738
0	5277	1.75662263821	918.16073791242
0	5280	1.758941694906	431.20981118092
0	5283	1.759205132462	3795.9659783664
0	5286	1.761338595415	468.72152084658
0	5289	1.761977166847	1565.995517319
0	5292	1.762535734234	1790.2942836868
0	5295	1.762675308622	7164.6382572711
0	5298	1.764154120567	676.21850322557
0	5301	1.764553977213	2500.8962837146
0	5304	1.765892335044	747.18433055591
0	5307	1.766759768728	1152.8258798859
0	5310	1.773514804481	148.03770647045
0	5313	1.773738839272	4463.5924426577
0	5316	1.774045743093	3258.3497877011
0	5319	1.77496724381	1085.1863504302
0	5322	1.775040565962	13638.443126983
0	5325	1.777214888291	459.91341148574
0	5328	1.77767778335	2160.3168592042
0	5331	1.778888898334	825.68543301913
0	5334	1.779206378548	3149.8025889576
0	5337	1.779475341916	3717.9784274563
0	5340	1.780862376493	720.96256040198
0	5343	1.782823722304	509.85399636903
0	5346	1.78434109211	659.03512515261
0	5349	1.784713507471	2685.1738803545
0	5352	1.785155141107	2264.3202837929
0	5355	1.785602651094	2234.5870015187
0	5358	1.786345298275	1346.5344319404
0	5361	1.787846443547	666.15804522882
0	5364	1.789252109322	711.40666421931
0	5367	1.789304913843	18937.772392633
0	5370	1.791630760174	429.95101897813
0	5373	1.792050270326	2383.7325395644
0	5376	1.794047749588	500.63097976734
0	5379	1.79414082926	10743.484356069
0	5382	1.79578246761	609.14756285999
0	5385	1.796762843986	1020.0164186739
0	5388	1.79772465099	1039.7096255706
0	5391	1.799133595854	709.75098142662
0	5394	1.799438144673	3283.5458147024
0	5397	1.801813800102	420.9364656982
0	5400	1.802004702495	5238.279019373
0	5403	1.802616896816	1633.4682725683
0	5406	1.803708829893	915.80704080091
0	5409	1.80488747283	848.43337079277
0	5412	1.805357576097	2127.1921941355
0	5415	1.806503472918	872.67891984142
0	5418	1.807055373087	1811.9218948817
0	5421	1.808335072536	781.43348485571
0	5424	1.80871212532	2652.1485649606
0	5427	1.811186127831	404.20330842583
0	5430	1.812434014884	801.35457579749
0	5433	1.812783897125	2858.1044786437
0	5436	1.814362244772	633.57397966204
0	5439	1.814827273977	2150.4025752533
0	5442	1.815594078495	1304.1133385706
0	5445	1.816088499748	2022.5667766754
0	5448	1.816624384569	1866.0726350374
0	5451	1.817209973052	1707.6838582565
0	5454	1.820021693779	355.65409835953
0	5457	1.82195271432	517.86088172948
0	5460	1.8228671008	1093.6294683622
0	5463	1.823881348634	985.95231508278
0	5466	1.824088720767	4822.248705905
0	5469	1.824585732524	2012.0248382776
0	5472	1.825693524181	902.69681458704
0	5475	1.828766241498	325.44484143316
0	5478	1.829880653255	897.3343952257
0	5481	1.83043479945	1804.5779417469
0	5484	1.83340119627	337.10931499718
0	5487	1.834052299856	1535.8539278572
0	5490	1.834093147841	24481.011731668
0	5493	1.834468006668	2667.6709416262
0	5496	1.835969836942	665.85420290975
0	5499	1.837398726941	699.84393529232
0	5502	1.837591904306	5176.5899177681
0	5505	1.837658646374	14983.053866416
0	5508	1.838606612155	1054.89039799
0	5511	1.839746973997	876.91464513244
0	5514	1.84300191353	307.22536927693
0	5517	1.844000877172	1001.0374331521
0	5520	1.844526138076	1903.8157844697
0	5523	1.845863322053	747.8402502575
0	5526	1.845890751909	36456.625948018
0	5529	1.846962349805	933.18585612453
0	5532	1.848063403524	908.22090034646
0	5535	1.848255082646	5217.052277608
0	5538	1.84830145477	21564.679676954
0	5541	1.849637130379	748.68478039266
0	5544	1.852434698403	357.45332782657
0	5547	1.852827900902	2543.2188313737
0	5550	1.853979588795	868.2907982953
0	5553	1.856492884067	397.88400954745
0	5556	1.859387755077	345.4385347553
0	5559	1.861232174149	542.17613295207
0	5562	1.861409107572	5651.8434055277
0	5565	1.861832324003	2362.8572209192
0	5568	1.863950409339	472.12450934035
0	5571	1.864389136119	2279.3229079839
0	5574	1.865600043697	825.82685761341
0	5577	1.866393713478	1259.9698564056
0	5580	1.867668887062	784.20696017178
0	5583	1.868540600064	1147.1665533331
0	5586	1.868719525391	5588.9236966436
0	5589	1.868812490778	10756.691627605
0	5592	1.869650775989	1192.9114183072
0	5595	1.870011352636	2773.3354567469
0	5598	1.87217238223	462.74239037561
0	5601	1.872907709615	1359.9384714878
0	5604	1.875174323101	441.1868217394
0	5607	1.875713270231	1855.4695708278
0	5610	1.876810517236	911.37182005796
0	5613	1.877325554969	1941.6053153527
0	5616	1.878925283968	625.10587769873
0	5619	1.879123195851	5052.7537045363
0	5622	1.87939417357	3690.3403117066
0	5625	1.880819279372	701.70228666292
0	5628	1.88090686802	11417.004632838
0	5631	1.882945188931	490.59988277773
0	5634	1.883486320313	1847.9800530216
0	5637	1.884199690377	1401.7969781249
0	5640	1.884754989793	1800.8302749593
0	5643	1.886063522166	764.21494846731
0	5646	1.886316163574	3958.1793337694
0	5649	1.88680000703	2066.7841790548
0	5652	1.886978820845	5592.4090652615
0	5655	1.887217665094	4186.8288819464
0	5658	1.890701638676	287.02858287058
0	5661	1.891345287741	1553.6416571972
0	5664	1.894224375516	347.33223789955
0	5667	1.89573892792	660.26107605056
0	5670	1.896328175913	1697.0783301421
0	5673	1.896986887199	1518.1157834299
0	5676	1.898318768643	750.81757802461
0	5679	1.899196385719	1139.4491143652
0	5682	1.899833708292	1569.0641479915
0	5685	1.900713627694	1136.4677238927
0	5688	1.900731844285	54895.013013137
0	5691	1.902288403113	642.44279240309
0	5694	1.903382357915	914.1145485826
0	5697	1.904554343411	853.25288018752
0	5700	1.905154002024	1667.6155037566
0	5703	1.908590755874	290.97224987469
0	5706	1.909339302292	1335.9224971938
0	5709	1.911321315498	504.53750609369
0	5712	1.911440216079	8410.3878348584
0	5715	1.912810293702	729.88565261751
0	5718	1.915133347343	430.4678903452
0	5721	1.915203546923	14245.099472105
0	5724	1.915679139482	2102.6401298259
0	5727	1.917133388529	687.6401274341
0	5730	1.920661467483	283.44036883478
0	5733	1.921673782968	987.83434099104
0	5736	1.923064264852	719.17513741589
0	5739	1.924750330367	593.09676350269
0	5742	1.92533359768	1714.4797551856
0	5745	1.926138740694	1242.0153719424
0	5748	1.926771815436	1579.5923192905
0	5751	1.927394844187	1605.0623641284
0	5754	1.927819542923	2354.6102571871
0	5757	1.929001704873	845.90778784582
0	5760	1.930939152073	516.14309798997
0	5763	1.931153157999	4672.7677998973
0	5766	1.931594519783	2265.7149672931
0	5769	1.935485520367	257.00330246982
0	5772	1.935766403672	3560.1973566923
0	5775	1.93652410586	1319.7797443869
0	5778	1.936933681712	2441.5501917823
0	5781	1.937081954859	6744.3095410931
0	5784	1.937158941165	12989.323062208
0	5787	1.939013998965	539.06676115429
0	5790	1.939571700773	1793.0729032171
0	5793	1.939765010674	5173.0407745644
0	5796	1.939876006843	9009.3199522949
0	5799	1.940288622954	2423.5602375691
0	5802	1.942753492845	405.7009271164
0	5805	1.943051631251	3354.1468656004
0	5808	1.94352276718	2122.5296956709
0	5811	1.943838978017	3162.4469594001
0	5814	1.945086949306	801.3004856877
0	5817	1.945464676968	2647.4100273863
0	5820	1.947116556927	605.37086520825
0	5823	1.950245892762	319.55662566335
0	5826	1.950402516376	6384.7332752774
0	5829	1.951336730681	1070.4182055958
0	5832	1.954175076878	352.31783954225
0	5835	1.954819471877	1551.8432041711
0	5838	1.95602672257	828.32837106518
0	5841	1.956372314333	2893.5874840281
0	5844	1.957158056603	1272.6819444243
0	5847	1.960586453862	291.68148392806
0	5850	1.961009989686	2361.0753644301
0	5853	1.96111405089	9609.7292896976
0	5856	1.963575881826	406.20173602368
0	5859	1.963681927308	9429.9161184443
0	5862	1.964636539816	1047.5454612417
0	5865	1.966932243498	435.59628702987
0	5868	1.967029548557	10276.95795344
0	5871	1.970073749654	328.49341030245
0	5874	1.970917844989	1184.7003040243
0	5877	1.97153970758	1608.0722887542
0	5880	1.972517881728	1022.3128489386
0	5883	1.973082176991	1772.121911291
0	5886	1.976742566434	273.19497435235
0	5889	1.978238071658	668.6703489576
0	5892	1.978930624108	1443.9339576374
0	5895	1.980708927162	562.33384841277
0	5898	1.982019095908	763.26046019113
0	5901	1.983390645963	729.10208151317
0	5904	1.983789266047	2508.6543306232
0	5907	1.983987328368	5048.9158914784
0	5910	1.98518640991	833.97163993706
0	5913	1.985710479325	1908.1441720845
0	5916	1.987592300188	531.4002090538
0	5919	1.989693555948	475.90589353102
0	5922	1.990111052325	2395.2303662745
0	5925	1.990233510713	8166.0392263207
0	5928	1.990279283259	21847.157027271
0	5931	1.990559317249	3570.9950781332
0	5934	1.991051439205	2032.0166328852
0	5937	1.991188662068	7287.4153631381
0	5940	1.993316337141	469.99657639924
0	5943	1.993659470767	2914.3165350982
0	5946	1.994177605724	1929.9990986711
0	5949	1.995055547849	1139.0272451046
0	5952	1.997674543755	381.8257209601
0	5955	1.998702364075	972.93270092189
0	5958	1.999959432963	795.50135203092
0	5961	2.000386018782	2344.1941936659
0	5964	2.00080163997	2406.0371051151
0	5967	2.001745835435	1059.102735682
0	5970	2.002291374331	1833.049865614
0	5973	2.002342483334	19566.024404741
0	5976	2.00272051929	2645.2510247464
0	5979	2.004887460128	461.48006556698
0	5982	2.005551151512	1506.7243964704
0	5985	2.007193892964	608.73851985808
0	5988	2.007528036567	2992.7252565119
0	5991	2.007629183323	9886.6245398913
0	5994	2.008279470107	1537.7830591126
0	5997	2.010114575359	544.92787207172
0	6000	2.01120900468	913.71820985779
0	6003	2.01219010098	1019.2679352679
0	6006	2.014025919591	544.71612500719
0	6009	2.01447563627	2223.6222197131
0	6012	2.014537631059	16130.387991158
0	6015	2.014738789643	4971.2022232171
0	6018	2.016706674304	508.15986313539
0	6021	2.020081822638	296.28327440497
0	6024	2.021313237707	812.07386946472
0	6027	2.021624647041	3211.2075356097
0	6030	2.023010952973	721.341499677
0	6033	2.023545437456	1870.9617057302
0	6036	2.024048062467	1989.5547935636
0	6039	2.024426761822	2640.6171196146
0	6042	2.024872627754	2242.8266620738
0	6045	2.025552312102	1471.2711907263
0	6048	2.026953665591	713.59582564253
0	6051	2.027710965778	1320.4803288924
0	6054	2.028090645875	2633.7962087067
0	6057	2.028674526297	1712.6794499714
0	6060	2.031481024152	356.31596803768
0	6063	2.032485207364	995.83421436446
0	6066	2.032814120062	3040.3204439374
0	6069	2.033025846381	4723.0783812002
0	6072	2.033313543878	3475.8731321184
0	6075	2.033603018271	3454.5369959546
0	6078	2.034082237442	2086.7278700751
0	6081	2.035700469539	617.9583273956
0	6084	2.036012698969	3202.7730377626
0	6087	2.036827822063	1226.8085732828
0	6090	2.037582027174	1325.8992619052
0	6093	2.038617290527	965.9377945739
0	6096	2.038805577989	5311.0280917165
0	6099	2.040805073559	500.12613931423
0	6102	2.041248899493	2253.1355727401
0	6105	2.043938604776	371.7879450661
0	6108	2.044521383365	1715.9175351928
0	6111	2.045017603342	2015.2352713522
0	6114	2.046464868196	690.95853273585
0	6117	2.047540681464	929.529342819
0	6120	2.047979835349	2277.1061219235
0	6123	2.050139500985	463.03463986774
0	6126	2.051577614533	695.35538510899
0	6129	2.052157886121	1723.3309723929
0	6132	2.052798973613	1559.8494939908
0	6135	2.054210387394	708.50944879643
0	6138	2.054768948869	1790.3132327556
0	6141	2.056670893043	525.77778762922
0	6144	2.057568338093	1114.2743502792
0	6147	2.059618287834	487.81683765192
0	6150	2.061510631164	528.44533238057
0	6153	2.062262933453	1329.2529008907
0	6156	2.063331333143	935.97930564731
0	6159	2.063640583888	3233.6219594233
0	6162	2.064716551564	929.3959496233
0	6165	2.065320120858	1656.8105931512
0	6168	2.066640841156	757.16258886482
0	6171	2.067346064802	1417.9898896924
0	6174	2.067953417209	1646.4905522306
0	6177	2.068101429411	6756.1997354786
0	6180	2.068233005692	7600.154012561
0	6183	2.071092868757	349.66709149062
0	6186	2.071660461882	1761.8254273253
0	6189	2.073985862039	430.0335135825
0	6192	2.07756863192	279.11365597416
0	6195	2.07764939862	12381.340329616
0	6198	2.078443141799	1259.8533460909
0	6201	2.07890548006	2162.9185476389
0	6204	2.079968314193	940.88058423318
0	6207	2.081050394451	924.14586866994
0	6210	2.081378565832	3047.1883226161
0	6213	2.081876351051	2008.8985406375
0	6216	2.082740131566	1157.7015024471
0	6219	2.083051289706	3213.799902519
0	6222	2.083501434514	2221.50735103
0	6225	2.084368323076	1153.5508066837
0	6228	2.085030816881	1509.4480770277
0	6231	2.087032568199	499.56255355392
0	6234	2.088839478425	553.43092623573
0	6237	2.090201581536	734.15881068346
0	6240	2.092042762306	543.12972212935
0	6243	2.093060707243	982.37140699095
0	6246	2.094148579528	919.22555045145
0	6249	2.094394300986	4069.6486507092
0	6252	2.096630163606	447.25467077221
0	6255	2.096750855022	8285.5934012739
0	6258	2.097497507133	1339.3118230935
0	6261	2.097974791219	2095.1882313545
0	6264	2.098693380871	1391.6148071667
0	6267	2.098976411392	3533.1878571499
0	6270	2.101735656749	362.41793339004
0	6273	2.102253387856	1931.504571542
0	6276	2.103067050579	1229.0104630982
0	6279	2.103209715453	7009.433870877
0	6282	2.103894722271	1459.8394844006
0	6285	2.104312914432	2391.2452055743
0	6288	2.104452535115	7162.2626283815
0	6291	2.104588542875	7352.5216502353
0	6294	2.104759986704	5832.8141982877
0	6297	2.105045529601	3502.1007719201
0	6300	2.106267130608	818.59788447277
0	6303	2.10698217995	1398.5048880725
0	6306	2.108056616126	930.72070946353
0	6309	2.108185415126	7764.0354350577
0	6312	2.10922580268	961.18027955571
0	6315	2.110385763008	862.09844928421
0	6318	2.111371683545	1014.2805251251
0	6321	2.111875524037	1984.7551276208
0	6324	2.112625172612	1333.9583817657
0	6327	2.114207498067	631.98123801908
0	6330	2.115091443629	1131.2913860186
0	6333	2.115516127425	2354.6930902916
0	6336	2.116273819678	1319.7970495813
0	6339	2.117883355118	621.29728563169
0	6342	2.118284588339	2492.3160587443
0	6345	2.11884547006	1782.907095309
0	6348	2.121449720755	383.98760991787
0	6351	2.12208187385	1581.895284401
0	6354	2.124439432989	424.16751438276
0	6357	2.124492674973	18782.170100949
0	6360	2.125413300621	1086.2178369378
0	6363	2.125527501486	8756.5011000573
0	6366	2.126873517692	742.93310551716
0	6369	2.127649132247	1289.3001988597
0	6372	2.128290270664	1559.7255966647
0	6375	2.128853798466	1774.5353404942
0	6378	2.129159922441	3266.6503824145
0	6381	2.129480834189	3116.1215076489
0	6384	2.12968418263	4917.6674041971
0	6387	2.130490627058	1240.0110476056
0	6390	2.131966861728	677.39907504001
0	6393	2.13351378979	646.4424717379
0	6396	2.133646881512	7513.6153095983
0	6399	2.134031982165	2596.723719396
0	6402	2.134338720922	3260.103189373
0	6405	2.134345365284	150503.53969275
0	6408	2.135295949071	1051.9851208024
0	6411	2.137871364783	388.28682893428
0	6414	2.138155174271	3523.4903774605
0	6417	2.138393430291	4197.1657211432
0	6420	2.140444600046	487.52668937438
0	6423	2.141023983193	1725.9735723725
0	6426	2.141416982246	2544.5353935751
0	6429	2.142501291246	922.24633384026
0	6432	2.14375553758	797.29154703672
0	6435	2.143856369522	9917.4922169009
0	6438	2.144908565819	950.39300447186
0	6441	2.145501273423	1687.1725505988
0	6444	2.147982647321	403.00254661581
0	6447	2.148931151162	1054.2919878381
0	6450	2.151557002933	380.8288080249
0	6453	2.15300139304	692.33373667797
0	6456	2.153177579518	5675.8044734852
0	6459	2.15720816938	248.10264359267
0	6462	2.158432892691	816.51095477516
0	6465	2.159350578598	1089.6974578907
0	6468	2.15977448707	2358.9997984282
0	6471	2.160531401942	1321.1525324607
0	6474	2.161758603547	814.86203727708
0	6477	2.163277972133	658.16814248653
0	6480	2.163356965752	12659.250362995
0	6483	2.163506519252	6686.5703577649
0	6486	2.163649091231	7014.0009770083
0	6489	2.163711958629	15906.495764307
0	6492	2.164661753789	1052.8585974264
0	6495	2.166070132516	710.03628557363
0	6498	2.166112447677	23632.191781097
0	6501	2.166550986394	2280.3003731139
0	6504	2.16743068766	1136.749529243
0	6507	2.171542703928	243.18969936527
0	6510	2.174276124848	365.8419355333
0	6513	2.174668880771	2546.1105522271
0	6516	2.174832447493	6113.7130326546
0	6519	2.177567415127	365.63503990629
0	6522	2.179285788675	581.94564340442
0	6525	2.179498977873	4690.669177338
0	6528	2.182267952366	361.14453294099
0	6531	2.183390758134	890.6259911554
0	6534	2.183549438225	6301.98781522
0	6537	2.183658827235	9141.6861712159
0	6540	2.184299262416	1561.4382683327
0	6543	2.184909384533	1639.0161446975
0	6546	2.185963019457	949.0953433886
0	6549	2.187019422213	946.60866257717
0	6552	2.187592787842	1744.0878026541
0	6555	2.190845180954	307.46590758368
0	6558	2.194957039962	243.19900027078
0	6561	2.195129116893	5811.3542250472
0	6564	2.197424040592	435.74433452221
0	6567	2.197572333214	6743.4238232027
0	6570	2.197610373396	26287.991997515
0	6573	2.198309625679	1430.0990133485
0	6576	2.198727333265	2394.0192457984
0	6579	2.199563214306	1196.3424829012
0	6582	2.201821730457	442.76858483267
0	6585	2.203968672108	465.77884384246
0	6588	2.205330787174	734.15236712461
0	6591	2.205929394407	1670.5444653389
0	6594	2.206766758942	1194.2230154278
0	6597	2.207065004366	3352.9433128872
0	6600	2.207157000078	10870.071857262
0	6603	2.207312244655	6441.4488372112
0	6606	2.208850994797	649.87808787478
0	6609	2.209857935844	993.1067990319
0	6612	2.219516103566	103.53930774283
0	6615	2.222401754437	346.54226886895
0	6618	2.224717332679	431.85757313745
0	6621	2.224768135514	19683.940866686
0	6624	2.225248489982	2081.7959790477
0	6627	2.225932073531	1462.8789728233
0	6630	2.22825491913	430.5064445224
0	6633	2.228706360019	2215.1294319288
0	6636	2.231553173219	351.26997444019
0	6639	2.231822706413	3710.1181682283
0	6642	2.232036003074	4688.3059271143
0	6645	2.234302450258	441.21919410234
0	6648	2.234452188305	6678.329389457
0	6651	2.234649349064	5072.0031971474
0	6654	2.234812977913	6111.391763197
0	6657	2.234838865234	38628.948897416
0	6660	2.236989919527	464.88831232862
0	6663	2.23732026277	3027.1543952845
0	6666	2.238459183165	878.02449090395
0	6669	2.238777410061	3142.4119474804
0	6672	2.239240877133	2157.650587095
0	6675	2.239544509996	3293.451143989
0	6678	2.239961508051	2398.0927201207
0	6681	2.240124744308	6126.0899899218
0	6684	2.242289837076	461.87397361442
0	6687	2.24264776766	2793.8378129766
0	6690	2.243927782633	781.24086131296
0	6693	2.244281936477	2823.6316418466
0	6696	2.246589454847	433.36599742866
0	6699	2.246674237307	11794.892481299
0	6702	2.24734425934	1492.4882328459
0	6705	2.247568295219	4463.5707658236
0	6708	2.250343986086	360.27066698563
0	6711	2.250920761	1733.7785949546
0	6714	2.251366370113	2244.1192759
0	6717	2.255386864318	248.72564142895
0	6720	2.2568893705	665.55466591751
0	6723	2.258060578891	853.81901947115
0	6726	2.258200921662	7125.4115397223
0	6729	2.259560077493	735.75080737008
0	6732	2.260305724012	1341.118042556
0	6735	2.260338559549	30454.808764053
0	6738	2.261964363397	615.08035008661
0	6741	2.263537469092	635.6851946938
0	6744	2.264851775405	760.85764034522
0	6747	2.267597037365	364.26396262745
0	6750	2.268165951066	1757.7358362828
0	6753	2.269436490985	787.06696660666
0	6756	2.269535848982	10064.61513108
0	6759	2.270818741033	779.48881140897
0	6762	2.274032921265	311.12132108963
0	6765	2.274053588923	48384.775865751
0	6768	2.274098104603	22463.99470928
0	6771	2.276315941096	450.88986638836
0	6774	2.278287164838	507.29908467184
0	6777	2.278362000045	13362.694379933
0	6780	2.280157087005	557.07607613617
0	6783	2.2808961669	1353.033693333
0	6786	2.281633600414	1356.0544523882
0	6789	2.284168440501	394.50220356248
0	6792	2.284172571904	242048.52443589
0	6795	2.285149946852	1023.1487946835
0	6798	2.285959116891	1235.8341903462
0	6801	2.287469557103	662.05864492702
0	6804	2.28811741471	1543.5490595389
0	6807	2.289414798324	770.78204873952
0	6810	2.290171778098	1321.039259366
0	6813	2.291805493341	612.10177494806
0	6816	2.292726553704	1085.705172181
0	6819	2.294171348502	692.13981209254
0	6822	2.294885024608	1401.1958528425
0	6825	2.295363860001	2088.4003451265
0	6828	2.296029771902	1501.7001475695
0	6831	2.296966340598	1067.7273373228
0	6834	2.301010822919	247.25043173208
0	6837	2.30115750964	6817.249667746
0	6840	2.303317913471	462.87642414387
0	6843	2.303511065775	5177.2615666029
0	6846	2.306100914439	386.1229476071
0	6849	2.307181737512	925.22081086254
0	6852	2.30746972	3472.4333654621
0	6855	2.308020181215	1816.6584179777
0	6858	2.308417262177	2518.3781034559
0	6861	2.309184267061	1303.7726628088
0	6864	2.309550851278	2727.886127187
0	6867	2.309838872636	3471.9647422814
0	6870	2.311655879251	550.35572889205
0	6873	2.311935090199	3581.5214523751
0	6876	2.312330261588	2530.5475746373
0	6879	2.312428819034	10146.366820423
0	6882	2.312528529308	10029.056785061
0	6885	2.312777370124	4018.6333418871
0	6888	2.314829391112	487.32445030918
0	6891	2.31549003834	1513.6671397643
0	6894	2.315962134312	2118.213370395
0	6897	2.316609993016	1543.5464458929
0	6900	2.317226357078	1622.4177586785
0	6903	2.317294792186	14612.382872253
0	6906	2.318583203997	776.14935804093
0	6909	2.320355795615	564.14573432785
0	6912	2.321341910839	1014.0802774991
0	6915	2.322421867776	925.9628469797
0	6918	2.324035920728	619.5583600655
0	6921	2.32430351283	3737.0310727631
0	6924	2.324585991607	3540.0889603823
0	6927	2.32488025334	3398.3351821013
0	6930	2.326958887317	481.08517952894
0	6933	2.327109668162	6632.1421663342
0	6936	2.327162960313	18764.489352288
0	6939	2.327841941508	1472.7948393328
0	6942	2.328056933787	4651.3298275237
0	6945	2.32846426368	2455.0125517058
0	6948	2.334690371185	160.61399505179
0	6951	2.336386137586	589.7038645242
0	6954	2.337213678676	1208.3992107268
0	6957	2.337652345363	2279.6351526917
0	6960	2.33796478397	3200.6287878502
0	6963	2.341961254682	250.2207752949
0	6966	2.342119378648	6324.1520263917
0	6969	2.342764979128	1548.9455646006
0	6972	2.3431085292	2910.7838463792
0	6975	2.343212823783	9588.2256895356
0	6978	2.343291150195	12767.085513888
0	6981	2.344077951548	1270.9688362725
0	6984	2.346343531585	441.38807001679
0	6987	2.346705448781	2763.0629631646
0	6990	2.346716109504	93802.268382735
0	6993	2.347274985358	1789.3061452607
0	6996	2.35131095507	247.77192877011
0	6999	2.351788358024	2094.6665529011
0	7002	2.352062239235	3651.2179727437
0	7005	2.352221419091	6282.2019389187
0	7008	2.352479952458	3867.9726783584
0	7011	2.354622236526	466.79150302116
0	7014	2.355616905236	1005.3598649946
0	7017	2.356274322021	1521.1050627495
0	7020	2.35739678791	890.8956697926
0	7023	2.358595136783	834.48152915316
0	7026	2.359025517616	2323.5235478063
0	7029	2.360286718396	792.89516455897
0	7032	2.362277520255	502.31015983796
0	7035	2.362745164879	2138.3759134158
0	7038	2.365182514984	410.2816406837
0	7041	2.365869971806	1454.6368120848
0	7044	2.366267784001	2513.748981476
0	7047	2.368332656739	484.29134716001
0	7050	2.369329879674	1002.7847985666
0	7053	2.37011807937	1268.7140138151
0	7056	2.372046959235	518.43560511219
0	7059	2.37245951349	2423.9236121804
0	7062	2.373503559217	957.81245412827
0	7065	2.374228650203	1379.1372659541
0	7068	2.375075810037	1180.4147928949
0	7071	2.37700979063	517.06827029158
0	7074	2.377376214674	2729.0785535897
0	7077	2.377502193863	7937.8189996127
0	7080	2.383473530713	167.46668712886
0	7083	2.385397894556	519.65224956682
0	7086	2.386242715393	1183.6829256616
0	7089	2.388302484634	485.49127741829
0	7092	2.388461545574	6286.8985937088
0	7095	2.388973604354	1952.9007978342
0	7098	2.389639358763	1502.0553923211
0	7101	2.392967800201	300.44091765691
0	7104	2.393041906018	13494.217329795
0	7107	2.395812908519	360.88022282157
0	7110	2.39826627939	407.60245905765
0	7113	2.400286239704	495.05923114884
0	7116	2.400512332134	4422.9698446781
0	7119	2.400982177889	2128.3580608279
0	7122	2.401031291097	20361.121594826
0	7125	2.401910811339	1136.9834965095
0	7128	2.403526828193	618.80542738448
0	7131	2.404888417902	734.43563313536
0	7134	2.407232632969	426.58202059922
0	7137	2.407859933918	1594.1311767408
0	7140	2.410466929723	383.58327929876
0	7143	2.412979573035	397.98724921446
0	7146	2.412980178753	1650933.272579
0	7149	2.413140357408	6243.0290727563
0	7152	2.413360495416	4542.6049280867
0	7155	2.415079724352	581.65610120932
0	7158	2.41607219737	1007.5840671368
0	7161	2.417758825647	592.89887027075
0	7164	2.417967682719	4787.963320677
0	7167	2.420675941323	369.2409574636
0	7170	2.421346448488	1491.4083729441
0	7173	2.42154299206	5087.9303241726
0	7176	2.421580546823	26627.780875624
0	7179	2.423092335217	661.46823455505
0	7182	2.423559176397	2142.056105676
0	7185	2.424072799945	1946.9512328512
0	7188	2.424573861052	1995.764560509
0	7191	2.426254286369	595.08743999719
0	7194	2.426372429812	8464.2869261902
0	7197	2.426675851196	3295.7466175159
0	7200	2.426677801063	512855.49219511
0	7203	2.427104975751	2340.9626742678
0	7206	2.427248501945	6967.3693151788
0	7209	2.427768805734	1921.954099012
0	7212	2.430453793482	372.44117808168
0	7215	2.431315769989	1160.1244255257
0	7218	2.434674147354	297.76284536148
0	7221	2.435698735402	976.00201559251
0	7224	2.435930412759	4316.3475833333
0	7227	2.436817530391	1127.2462229676
0	7230	2.437494486176	1477.20135075
0	7233	2.437832800029	2955.8352137593
0	7236	2.438173242852	2937.3508044257
0	7239	2.438532662873	2782.260145714
0	7242	2.442633685044	243.84164686341
0	7245	2.443054202081	2378.0249360028
0	7248	2.443375040286	3116.8357895532
0	7251	2.443406017582	32281.70722196
0	7254	2.446361145465	338.39483081349
0	7257	2.447244187855	1132.4484660357
0	7260	2.447338381921	10616.380016975
0	7263	2.447861923792	1910.0669027483
0	7266	2.448251848967	2564.594604593
0	7269	2.448288686303	27146.3712794
0	7272	2.448942119252	1530.3789034979
0	7275	2.451674658067	365.9600348623
0	7278	2.452302908387	1591.7222294451
0	7281	2.452816578993	1946.7728702389
0	7284	2.45307888315	3812.3680975441
0	7287	2.454164029699	921.53451616423
0	7290	2.454321510797	6349.968426052
0	7293	2.45468501923	2750.9678159241
0	7296	2.455261113738	1735.8263029996
0	7299	2.455922773403	1511.3510055052
0	7302	2.458117927063	455.54897509999
0	7305	2.460326143827	452.85409308667
0	7308	2.462841051826	397.62885974263
0	7311	2.463579908646	1353.4422000734
0	7314	2.463586826541	144552.64209705
0	7317	2.463647300779	16535.96693521
0	7320	2.466533171036	346.51592446833
0	7323	2.467551130514	982.35737434727
0	7326	2.467795784341	4087.4079603096
0	7329	2.469160985467	732.49280340837
0	7332	2.471057336967	527.32839876995
0	7335	2.472341095935	778.96242591234
0	7338	2.473862013342	657.49789922682
0	7341	2.474514298403	1533.0720566663
0	7344	2.475360099413	1182.3111916123
0	7347	2.477002739134	608.77621989515
0	7350	2.477997597555	1005.168151459
0	7353	2.479990823098	501.69937040587
0	7356	2.48027439741	3526.4125052343
0	7359	2.48043007804	6423.4066884236
0	7362	2.480812647092	2613.9072012547
0	7365	2.48286834518	486.45275579981
0	7368	2.486073118456	312.0345540475
0	7371	2.487179486016	903.85875016075
0	7374	2.488628687385	690.03523001778
0	7377	2.489523782684	1117.1994771028
0	7380	2.489867990721	2905.2197871835
0	7383	2.490441342566	1744.1297324159
0	7386	2.491021938624	1722.3678773238
0	7389	2.491068595635	21433.00607062
0	7392	2.494294039462	310.03485214316
0	7395	2.495643390529	741.09697947124
0	7398	2.496005693158	2760.1234988554
0	7401	2.497619215653	619.76204428436
0	7404	2.498862839543	804.10163236732
0	7407	2.499825351673	1038.9479455184
0	7410	2.500863496447	963.25678753549
0	7413	2.500917988311	18351.363425557
0	7416	2.501760496548	1186.9320157163
0	7419	2.502407896495	1544.6402253104
0	7422	2.502529211453	8243.0066043464
0	7425	2.502532208806	333627.70417765
0	7428	2.503153499399	1609.5527781474
0	7431	2.503999271902	1182.3510417434
0	7434	2.505008517735	990.83886928468
0	7437	2.50532538678	3155.8778485289
0	7440	2.505788126774	2161.0407852493
0	7443	2.506918002324	885.05322555214
0	7446	2.507427799825	1961.5631658422
0	7449	2.507937432617	1962.1971264361
0	7452	2.50874201342	1242.8832458733
0	7455	2.509161326848	2384.8508853382
0	7458	2.511400856651	446.52230064562
0	7461	2.512059926357	1517.2901908497
0	7464	2.512396974194	2966.9378949315
0	7467	2.512740521502	2910.807265007
0	7470	2.512774653407	29298.100999637
0	7473	2.514393158793	617.85398346521
0	7476	2.514729600158	2972.2861218328
0	7479	2.515536388052	1239.4831497063
0	7482	2.51612827003	1689.5260156071
0	7485	2.51701077589	1133.1369516345
0	7488	2.517563514164	1809.1745171965
0	7491	2.519252727065	591.99168998059
0	7494	2.519573027092	3122.0727933314
0	7497	2.519823987831	3984.6870230965
0	7500	2.52379910009	251.56522252571
0	7503	2.524608774587	1235.0642186523
0	7506	2.525666935509	945.03584399047
0	7509	2.525715423264	20623.763669817
0	7512	2.52606388373	2869.7660066838
0	7515	2.527329917536	789.86832362674
0	7518	2.531635986814	232.23035567706
0	7521	2.534787830541	317.27461340598
0	7524	2.537040920734	443.83487314749
0	7527	2.538459783151	704.78996978042
0	7530	2.538559762364	10002.079132189
0	7533	2.543204010155	215.32012179408
0	7536	2.546295525667	323.46594934375
0	7539	2.546661469531	2732.6595644189
0	7542	2.548233103755	636.28036646776
0	7545	2.548445901375	4699.3006782689
0	7548	2.550393200415	513.53180968035
0	7551	2.550603337459	4758.799214859
0	7554	2.551235744549	1581.259944445
0	7557	2.551387183704	6603.3120694579
0	7560	2.551768004528	2625.9068227845
0	7563	2.552254354384	2056.1330237137
0	7566	2.554914108167	375.97465088369
0	7569	2.557395295167	403.03290320318
0	7572	2.55831908362	1082.4989170979
0	7575	2.558727538557	2448.2504908491
0	7578	2.560292007082	639.19470671358
0	7581	2.564589383757	232.70010418624
0	7584	2.56495184099	2758.9461844178
0	7587	2.568142419064	313.42282708861
0	7590	2.569400613973	794.78941843342
0	7593	2.570973704312	635.69140004743
0	7596	2.571105508427	7587.0165358646
0	7599	2.574757391383	273.83133907866
0	7602	2.574901325564	6947.6200375226
0	7605	2.580067426472	193.56958329084
0	7608	2.580522458183	2197.6490337395
0	7611	2.580886429082	2747.4724016329
0	7614	2.581283461296	2518.68731236
0	7617	2.585381524581	244.01770554893
0	7620	2.585935413909	1805.4148174525
0	7623	2.586411779263	2099.2290719782
0	7626	2.589435149228	330.75674217065
0	7629	2.591043129005	621.89836856387
0	7632	2.591266502584	4476.8051999561
0	7635	2.592909086312	608.79697208348
0	7638	2.593002422444	10713.964448409
0	7641	2.595985793245	335.19132106033
0	7644	2.597088689655	906.70346818882
0	7647	2.597662758731	1741.9506498552
0	7650	2.598085654556	2364.6485514488
0	7653	2.600061214401	506.18562759864
0	7656	2.60066474574	1656.9147869884
0	7659	2.602586336693	520.40211702641
0	7662	2.603476089025	1123.9082652947
0	7665	2.604861754259	721.67503049297
0	7668	2.605050669203	5293.3874834169
0	7671	2.60517236939	8216.9142435254
0	7674	2.605589935174	2394.8322355837
0	7677	2.605805835981	4631.7566566576
0	7680	2.607438542503	612.47994451265
0	7683	2.608100668998	1510.2854326952
0	7686	2.608277725867	5647.9028780295
0	7689	2.608517923251	4163.2426771143
0	7692	2.60862421843	9407.7643916475
0	7695	2.608780234086	6409.6131480548
0	7698	2.60892170995	7068.3434737674
0	7701	2.60986251183	1062.9230460296
0	7704	2.609887827984	39500.47072711
0	7707	2.61042698316	1854.7535932401
0	7710	2.611074509301	1544.3391960295
0	7713	2.611598533289	1908.3095867741
0	7716	2.611733343234	7417.8503670482
0	7719	2.613901507614	461.2196423963
0	7722	2.614220043617	3139.3625542542
0	7725	2.615096759524	1140.6203446472
0	7728	2.615757075347	1514.4268320827
0	7731	2.615912318378	6441.5129848888
0	7734	2.616293845159	2621.0479835228
0	7737	2.616416195276	8173.265580122
0	7740	2.618081467871	600.50228593355
0	7743	2.620041467134	510.20427347987
0	7746	2.620108167407	14992.442384756
0	7749	2.620250171481	7042.0514836779
0	7752	2.620358977103	9190.7015613587
0	7755	2.620980831416	1608.0936950903
0	7758	2.62116011576	5577.7318737882
0	7761	2.622906509716	572.60848651265
0	7764	2.628541681227	177.45688805531
0	7767	2.630194726686	604.94404104588
0	7770	2.631963994541	565.20554373606
0	7773	2.632115695896	6591.8989319509
0	7776	2.634947092704	353.18256952701
0	7779	2.636003291934	946.7910708475
0	7782	2.637484094981	675.30925333111
0	7785	2.638139384149	1526.043842678
0	7788	2.638756822208	1619.5956589064
0	7791	2.640174909692	705.17511174931
0	7794	2.642241993323	483.77336311073
0	7797	2.645095392325	350.45922399885
0	7800	2.646454587323	735.72960573829
0	7803	2.647543147501	918.64466495301
0	7806	2.647957546858	2413.1311574405
0	7809	2.649363822954	711.09791515648
0	7812	2.649801753633	2283.4664204925
0	7815	2.652141552895	427.38709095293
0	7818	2.654642121043	399.909116974
0	7821	2.657506316998	349.13812312817
0	7824	2.657666771998	6232.2769623882
0	7827	2.658696075141	971.53108566773
0	7830	2.659274327536	1729.3486523303
0	7833	2.659275464078	879861.89687667
0	7836	2.660416168207	876.65151249751
0	7839	2.661274485597	1165.0701845852
0	7842	2.66170999201	2296.1774388383
0	7845	2.662324334596	1627.7562760398
0	7848	2.664348015041	494.14916395064
0	7851	2.664900325887	1810.5746197858
0	7854	2.669166665742	234.39295367621
0	7857	2.670292476256	888.24894381827
0	7860	2.670909830001	1619.8168523299
0	7863	2.672742279648	545.71758718563
0	7866	2.674153442789	708.63528882377
0	7869	2.674212165022	17029.325162073
0	7872	2.675076279141	1157.2545547077
0	7875	2.675206090353	7703.4948260093
0	7878	2.675939891752	1362.766548773
0	7881	2.676707351899	1302.9992552825
0	7884	2.676873515898	6018.1507788579
0	7887	2.677586111549	1403.3203803541
0	7890	2.67779455495	4797.4653800626
0	7893	2.678742028685	1055.4382280581
0	7896	2.680847092223	475.04504350975
0	7899	2.686734613456	169.85076748342
0	7902	2.68713364369	2506.0757676823
0	7905	2.687358388029	4449.500283075
0	7908	2.690973235213	276.63686709253
0	7911	2.691351599831	2642.9532583832
0	7914	2.691407763036	17805.251676787
0	7917	2.691551303416	6966.6807347173
0	7920	2.6918385628	3481.1743521667
0	7923	2.692140409661	3312.9382120691
0	7926	2.692699892892	1787.3636680989
0	7929	2.693322880057	1605.1695061808
0	7932	2.694334443417	988.56882281699
0	7935	2.69562329197	775.88635039574
0	7938	2.696025645035	2485.3793520872
0	7941	2.696672787924	1545.2537870659
0	7944	2.697402339598	1370.7048254953
0	7947	2.698075726297	1485.0308173372
0	7950	2.701154581863	324.79600895965
0	7953	2.701610531289	2193.2257021857
0	7956	2.704503366339	345.68165232926
0	7959	2.706119774042	618.65579961295
0	7962	2.707243106966	890.20803951794
0	7965	2.710036170053	358.02986500892
0	7968	2.710042634746	154686.38649971
0	7971	2.710858059561	1226.3546333208
0	7974	2.710882213258	41401.529546388
0	7977	2.712530937988	606.52938711
0	7980	2.712630811437	10012.671135449
0	7983	2.713381954789	1331.3038015146
0	7986	2.714443656138	941.88445831955
0	7989	2.717746546009	302.76516597789
0	7992	2.71820680369	2172.6959511622
0	7995	2.720248222302	489.85543392312
0	7998	2.720580660047	3008.0820094601
0	8001	2.722891999674	432.64952857575
0	8004	2.723329730161	2284.5107427941
0	8007	2.725405949361	481.64471265847
0	8010	2.725555627704	6680.9932549828
0	8013	2.728267458799	368.75452967693
0	8016	2.728419626231	6571.7084586142
0	8019	2.7289544883	1869.6408998859
0	8022	2.730355720795	713.65744340663
0	8025	2.730831451035	2102.0316051382
0	8028	2.731584641486	1327.6854461874
0	8031	2.732308135059	1382.1822851217
0	8034	2.732403274004	10510.942705955
0	8037	2.732582651036	5574.849738845
0	8040	2.732921927532	2947.4485022977
0	8043	2.733017665791	10445.145028175
0	8046	2.73334057925	3096.8049554107
0	8049	2.733461984489	8236.8768286845
0	8052	2.735199233213	575.62281450264
0	8055	2.735955184757	1322.8361102468
0	8058	2.738462483517	398.83559787666
0	8061	2.739184358332	1385.2817402973
0	8064	2.740312849265	886.13915341046
0	8067	2.740741884057	2330.8133015003
0	8070	2.744549871743	262.60589121033
0	8073	2.744997898793	2232.0080896901
0	8076	2.745005070972	139427.64116735
0	8079	2.74518513691	5553.5211773367
0	8082	2.745334049465	6715.3504954636
0	8085	2.745555936246	4506.80295371
0	8088	2.746353636573	1253.6035979336
0	8091	2.748842284366	401.82463858999
0	8094	2.749890476869	954.02323250541
0	8097	2.749967524399	12979.001403419
0	8100	2.750394878173	2339.9816752291
0	8103	2.751306310958	1097.1736111073
0	8106	2.751477157041	5853.2216978015
0	8109	2.754289321257	355.5980103546
0	8112	2.754572569149	3530.4764068641
0	8115	2.755355182628	1277.7699679767
0	8118	2.75606094998	1416.8975047743
0	8121	2.756600810517	1852.3302435792
0	8124	2.756875720044	3637.5603672695
0	8127	2.758353749502	676.57650163019
0	8130	2.759381384537	973.10812296313
0	8133	2.760094947931	1401.4171808819
0	8136	2.761344817582	800.08343206023
0	8139	2.76151652329	5823.9182124336
0	8142	2.76168831439	5821.0233242584
0	8145	2.761787941011	10037.477834363
0	8148	2.762736258319	1054.4993659443
0	8151	2.762901419591	6054.688171692
0	8154	2.763475598032	1741.6188567763
0	8157	2.764062661988	1703.3919214076
0	8160	2.766860478641	357.42156260588
0	8163	2.767018102044	6344.2355701456
0	8166	2.769522158295	399.35205113729
0	8169	2.77301426708	286.35992220386
0	8172	2.773931016862	1090.8101857612
0	8175	2.773997724864	14990.705312985
0	8178	2.774441360287	2254.1031400011
0	8181	2.774806881258	2735.8211411624
0	8184	2.776532838325	579.38868765616
0	8187	2.777312446302	1282.6959568168
0	8190	2.777360596581	20768.311643636
0	8193	2.778294951177	1070.2574849859
0	8196	2.779790000398	668.87429922282
0	8199	2.787387628737	131.6200207987
0	8202	2.78974241936	424.66620608757
0	8205	2.790577230855	1197.8752161289
0	8208	2.793124577938	392.56527179732
0	8211	2.793272376525	6765.964548768
0	8214	2.793504209841	4313.4438882805
0	8217	2.79389959367	2529.1879097058
0	8220	2.794740192617	1189.6279475116
0	8223	2.795114007409	2675.1215345165
0	8226	2.795820495545	1415.451936195
0	8229	2.796286693077	2145.0135004147
0	8232	2.79741514447	886.17020299075
0	8235	2.798423090243	992.11686460438
0	8238	2.799381591922	1043.2949904097
0	8241	2.800256703588	1142.7113119984
0	8244	2.800394019538	7282.4751967998
0	8247	2.803554610286	316.39654726978
0	8250	2.805876856123	430.61763060015
0	8253	2.807653279434	562.92888851873
0	8256	2.8080357851	2614.3403585556
0	8259	2.808359684956	3087.3740184682
0	8262	2.808721490922	2763.9124115493
0	8265	2.810101982583	724.37960202934
0	8268	2.810105380176	294326.01256242
0	8271	2.810222197475	8560.3759765067
0	8274	2.8104119598	5269.7499358737
0	8277	2.810502104805	11093.23805573
0	8280	2.811241911674	1351.7041296896
0	8283	2.811532793488	3437.8223452636
0	8286	2.815845941645	231.84921166621
0	8289	2.816145306296	3340.4077490766
0	8292	2.816407631349	3812.0644161273
0	8295	2.817120399472	1402.9808120361
0	8298	2.819108479784	502.99778835092
0	8301	2.820822757363	583.33610160341
0	8304	2.822334044038	661.68782967666
0	8307	2.822506310737	5804.9524708197
0	8310	2.822825394224	3133.9760305428
0	8313	2.823891312426	938.1582921876
0	8316	2.824173961895	3537.9511008386
0	8319	2.82466336993	2043.2848022203
0	8322	2.826563055196	526.40298785157
0	8325	2.828006775949	692.65472420621
0	8328	2.828403991943	2517.5219908189
0	8331	2.828627741257	4469.2874455025
0	8334	2.828648223874	48821.886382975
0	8337	2.829093477472	2245.91110435
0	8340	2.829480198612	2585.8426048289
0	8343	2.830322608013	1187.0712729617
0	8346	2.831072825087	1332.9475356622
0	8349	2.832052980325	1020.2465499654
0	8352	2.832468554773	2406.3077140874
0	8355	2.832475899971	136143.36876964
0	8358	2.832560752128	11785.204234702
0	8361	2.834893846326	428.61535588972
0	8364	2.836526299091	612.57515160018
0	8367	2.83864094063	472.89338715672
0	8370	2.840338132929	589.20842416573
0	8373	2.842147708191	552.61586572242
0	8376	2.842170946928	43031.598490056
0	8379	2.842331733323	6219.4316876126
0	8382	2.845301531674	336.72319861828
0	8385	2.846442758907	876.24968199475
0	8388	2.846909573724	2142.1770766115
0	8391	2.849064342208	464.08698077097
0	8394	2.851459368739	417.53190916949
0	8397	2.8520680801	1642.8147461503
0	8400	2.852293926987	4427.7785418402
0	8403	2.852687933562	2538.0287118305
0	8406	2.853514879614	1209.2687274841
0	8409	2.853706651392	5214.531618933
0	8412	2.85665562172	339.10141126384
0	8415	2.858971609164	431.78127005424
0	8418	2.861197062515	449.34664640382
0	8421	2.862166896737	1031.1040560497
0	8424	2.862456657368	3451.1244558961
0	8427	2.862711787355	3919.5706148019
0	8430	2.863723837691	988.09314559627
0	8433	2.864808923147	921.58640084104
0	8436	2.866028873151	819.70572295682
0	8439	2.866422059319	2543.3244640488
0	8442	2.867731632888	763.60734797329
0	8445	2.867757481069	38687.441874537
0	8448	2.867991395296	4275.0713063725
0	8451	2.868501574026	1960.0973956715
0	8454	2.869965442222	683.12161076556
0	8457	2.872117318523	464.71072688299
0	8460	2.873732830596	618.99877859966
0	8463	2.875034892452	768.01266805561
0	8466	2.875219052104	5430.0710776756
0	8469	2.878224702225	332.70672225392
0	8472	2.878778968106	1804.1882682654
0	8475	2.879189344038	2436.7900795898
0	8478	2.879398551546	4779.9431748884
0	8481	2.87951537678	8559.7945389093
0	8484	2.880299958669	1274.5642156927
0	8487	2.880976974469	1477.0704021974
0	8490	2.881719116606	1347.4507781519
0	8493	2.881754008845	28659.668415088
0	8496	2.881813887058	16700.565195558
0	8499	2.883298097582	673.75886629948
0	8502	2.883866361213	1759.7466130997
0	8505	2.88437402972	1969.7893137184
0	8508	2.885739247011	732.48413024971
0	8511	2.886614375305	1142.6895997491
0	8514	2.886747742112	7498.1175788365
0	8517	2.886813480272	15211.864767739
0	8520	2.887074079496	3837.309968352
0	8523	2.888188451058	897.36676176954
0	8526	2.888952661535	1308.5400293459
0	8529	2.889779239115	1209.8077956578
0	8532	2.89087996746	908.48936937297
0	8535	2.892501574104	616.67236237594
0	8538	2.893380554472	1137.6818372808
0	8541	2.893824534224	2252.3549677554
0	8544	2.899006768702	192.96695358832
0	8547	2.899824284115	1223.2185278689
0	8550	2.89994206113	8490.621026522
0	8553	2.900497638878	1799.9280993522
0	8556	2.900975704046	2091.7650289887
0	8559	2.906500504306	181.00201870465
0	8562	2.906784373911	3522.7441839009
0	8565	2.907264987182	2080.6749633012
0	8568	2.907577283799	3202.0839982394
0	8571	2.90870541538	886.42142179335
0	8574	2.90890649158	4973.239000936
0	8577	2.911836291087	341.32028407089
0	8580	2.911963233555	7877.5843557729
0	8583	2.912932210175	1032.0166445296
0	8586	2.91416205794	813.10876716518
0	8589	2.914936350284	1291.5018568232
0	8592	2.915474817841	1857.1220995585
0	8595	2.918576332199	322.42314062504
0	8598	2.920962530756	419.07660913903
0	8601	2.921058202566	10452.399719416
0	8604	2.922439243472	724.09151362241
0	8607	2.922545319097	9427.2364645506
0	8610	2.925374285477	353.4859965356
0	8613	2.925760743649	2587.6021584038
0	8616	2.926176339637	2406.1829971275
0	8619	2.927143859482	1033.570531052
0	8622	2.928817120396	597.63542650946
0	8625	2.929836004975	981.4654383929
0	8628	2.934511254337	213.89233441277
0	8631	2.935544389629	967.92744158816
0	8634	2.935923287851	2639.2311759119
0	8637	2.938282205611	423.92321468638
0	8640	2.94098189535	370.4129350695
0	8643	2.942012895552	969.93191471751
0	8646	2.942434982079	2369.1824685984
0	8649	2.944473538121	490.54329603758
0	8652	2.944976553838	1988.0094521977
0	8655	2.945788108508	1232.2028779651
0	8658	2.946074569404	3490.8778613888
0	8661	2.946982087581	1101.9063037456
0	8664	2.948167075199	843.89067430745
0	8667	2.949489561277	756.15162732927
0	8670	2.949797648596	3245.8330425473
0	8673	2.950312364422	1942.8196093586
0	8676	2.951091130582	1284.0825030199
0	8679	2.952859874277	565.37304010008
0	8682	2.953169428311	3230.4537824243
0	8685	2.953752296577	1715.6535332805
0	8688	2.959349950586	178.64626831029
0	8691	2.96051314146	859.70413141326
0	8694	2.960918896019	2464.5440890782
0	8697	2.961267450697	2868.9903281114
0	8700	2.961722319279	2198.4371741023
0	8703	2.962348015625	1598.2193381708
0	8706	2.962582987298	4255.8321487544
0	8709	2.964306305131	580.27601226593
0	8712	2.964965837543	1516.2257105266
0	8715	2.965751365298	1273.0294934009
0	8718	2.965955956686	4887.7912691027
0	8721	2.966817317125	1160.9541775113
0	8724	2.967823039832	994.30985602675
0	8727	2.969528770035	586.25918579692
0	8730	2.969923205836	2535.2668228004
0	8733	2.971226756787	767.13533846365
0	8736	2.972295640756	935.55524173083
0	8739	2.972607048132	3211.2277263465
0	8742	2.973433765137	1209.6037627773
0	8745	2.974319180696	1129.4131776151
0	8748	2.975543770272	816.6001243179
0	8751	2.975936790612	2544.3975749448
0	8754	2.975985942391	20345.143560318
0	8757	2.976026229373	24821.913937361
0	8760	2.97650878238	2072.3111979281
0	8763	2.982124181379	178.08173563055
0	8766	2.982221046175	10323.668053768
0	8769	2.984594256591	421.37013779228
0	8772	2.986541711374	513.49074121224
0	8775	2.988202207717	602.22957082417
0	8778	2.993516272841	188.17985415415
0	8781	2.996649406784	319.16924657313
0	8784	2.996876456657	4404.3186934529
0	8787	2.997370455038	2024.2981322645
0	8790	2.997675222191	3281.1934952846
0	8793	2.997683879121	115514.39136045
0	8796	2.997870487307	5358.8217185713
0	8799	2.998217992656	2877.6535465645
0	8802	2.9985537095	2978.7007052884
0	8805	2.998717572676	6102.6523738317
0	8808	2.998785047124	14820.425059276
0	8811	2.999063627639	3589.6265034904
0	8814	3.003336985925	234.00799396487
0	8817	3.007573342667	236.05188630264
0	8820	3.007849719339	3618.2503854739
0	8823	3.008808249794	1043.2636696974
0	8826	3.009079735972	3683.4287747791
0	8829	3.00918660705	9357.0685232538
0	8832	3.009193206143	151535.97623189
0	8835	3.009284564697	10945.882527869
0	8838	3.010958458881	597.40932823505
0	8841	3.011505827774	1826.9215017303
0	8844	3.012767476469	792.61366810196
0	8847	3.012958045026	5247.4553816347
0	8850	3.013163332132	4871.2265445449
0	8853	3.01417479594	988.66612140807
0	8856	3.014280817345	9432.0576113852
0	8859	3.01443778199	6370.8614127723
0	8862	3.015621260991	844.96640764647
0	8865	3.016122002798	1997.0371676995
0	8868	3.016217798012	10438.934872049
0	8871	3.016383881463	6021.0694923482
0	8874	3.016667706182	3523.3012949799
0	8877	3.017055578895	2578.1653787025
0	8880	3.018189722017	881.72293302503
0	8883	3.019494044604	766.68150192817
0	8886	3.019662281072	5944.0144689676
0	8889	3.022491498215	353.4546658867
0	8892	3.024681933703	456.53022217653
0	8895	3.025642310968	1041.2574687511
0	8898	3.025712548504	14237.401494267
0	8901	3.026163175724	2219.129150698
0	8904	3.02971828314	281.28545300753
0	8907	3.030663480009	1057.9806522825
0	8910	3.030686151367	44108.517892929
0	8913	3.031852694942	857.23330137925
0	8916	3.03202844572	5689.8752391298
0	8919	3.032753102655	1379.9633339602
0	8922	3.033294618208	1846.6690281747
0	8925	3.034699791025	711.65623751175
0	8928	3.035376815862	1477.0506861036
0	8931	3.035744693562	2718.2946941334
0	8934	3.036395202466	1537.2579742583
0	8937	3.038047076737	605.37294971888
0	8940	3.040849532683	356.82987325004
0	8943	3.040958183502	9203.7962456592
0	8946	3.043994184391	329.38066771429
0	8949	3.04591662688	520.17160758873
0	8952	3.04610223083	5387.8163692098
0	8955	3.046411220917	3236.3497797261
0	8958	3.049549808999	318.61460436145
0	8961	3.050803003892	797.96048131518
0	8964	3.051701851648	1112.5354581182
0	8967	3.052146404469	2249.4514774432
0	8970	3.052892502562	1340.3063342235
0	8973	3.053325378374	2310.1313870593
0	8976	3.053668898113	2911.0408703472
0	8979	3.054944669841	783.83928570645
0	8982	3.056253250913	764.18650811724
0	8985	3.057980125418	579.08087536448
0	8988	3.060661161195	372.99017364064
0	8991	3.061780699468	893.22538060296
0	8994	3.062173486935	2545.9060790247
0	8997	3.062219179329	21885.480546281
0	9000	3.063850168801	613.12474247535
0	9003	3.063912195982	16121.964336893
0	9006	3.064681512925	1299.8543826429
0	9009	3.066968940335	437.17234288104
0	9012	3.06717615839	4825.8343125554
0	9015	3.068187988296	988.30840447604
0	9018	3.068524525209	2971.442244138
0	9021	3.068642843645	8451.7682434545
0	9024	3.070661272988	495.43473169771
0	9027	3.078178736017	133.02360066718
0	9030	3.078416953372	4197.8469620738
0	9033	3.078668462481	3975.9991356814
0	9036	3.078800621151	7566.6621039694
0	9039	3.08452331355	174.74292348384
0	9042	3.084544938897	46242.032555593
0	9045	3.084902612609	2795.8442749631
0	9048	3.085010727488	9249.4207018444
0	9051	3.085319792641	3235.5637324147
0	9054	3.08721697974	527.09614171797
0	9057	3.087684025031	2141.1199711678
0	9060	3.088301134399	1620.4583042402
0	9063	3.091219796029	342.62279317387
0	9066	3.091230964094	89541.026131205
0	9069	3.092405114652	851.67953392907
0	9072	3.094260140126	539.07615502643
0	9075	3.094595383097	2982.9111614692
0	9078	3.094783620257	5312.4473403657
0	9081	3.095326481627	1842.0909190868
0	9084	3.097496022196	460.92708027162
0	9087	3.097980107419	2065.7519636785
0	9090	3.09930166726	756.68158866217
0	9093	3.099441632458	7144.6331966036
0	9096	3.099588912086	6789.8053083078
0	9099	3.101245695161	603.57931891597
0	9102	3.10311808174	534.07774399562
0	9105	3.105578251699	406.47598201162
0	9108	3.106012029001	2305.3303973936
0	9111	3.107164374607	867.79521247205
0	9114	3.108119801419	1046.6526451217
0	9117	3.113096287726	200.94499176927
0	9120	3.113606493365	1959.9940172359
0	9123	3.113820211738	4679.0548981018
0	9126	3.115095425987	784.18195278494
0	9129	3.11623770534	875.44259411997
0	9132	3.116947839314	1408.1849856686
0	9135	3.11777317753	1211.6244960115
0	9138	3.119083105321	763.40085833021
0	9141	3.119440316758	2799.4624371448
0	9144	3.120057046968	1621.4545416869
0	9147	3.120318439863	3825.6586890015
0	9150	3.120712410215	2538.2620669892
0	9153	3.126305192627	178.80187826624
0	9156	3.127139078756	1199.2045019375
0	9159	3.127298183962	6285.1494626769
0	9162	3.128227915175	1075.5796793928
0	9165	3.129338288896	900.59768264274
0	9168	3.129815868778	2093.8905462521
0	9171	3.130247993775	2314.1452286779
0	9174	3.132484129926	447.1999612156
0	9177	3.134251982608	565.65799298881
0	9180	3.135105028702	1172.2695960202
0	9183	3.135871963272	1303.8921951321
0	9186	3.138350758944	403.421714543
0	9189	3.140292354848	515.0402295039
0	9192	3.1408345406	1844.3863497173
0	9195	3.143099147841	441.57767488124
0	9198	3.145103171095	498.9962057596
0	9201	3.146106564854	996.6177196444
0	9204	3.150924765306	207.54636714728
0	9207	3.150933636812	112720.43326127
0	9210	3.152799251178	536.01645561085
0	9213	3.153314716344	1939.9953012538
0	9216	3.153477414346	6146.3569786186
0	9219	3.155976012189	400.22447101744
0	9222	3.156966676064	1009.4241096659
0	9225	3.15720154409	4257.7102427727
0	9228	3.158408959004	828.2157097821
0	9231	3.158503064696	10626.349785516
0	9234	3.159655731178	867.55363812166
0	9237	3.160434473276	1284.1221793046
0	9240	3.161145800359	1405.8230368265
0	9243	3.163302401561	463.69259141311
0	9246	3.163866892485	1771.5076673226
0	9249	3.164282567461	2405.7257658926
0	9252	3.164429876607	6788.4447582094
0	9255	3.164431920176	489339.97335055
0	9258	3.16797159736	282.51163821384
0	9261	3.16883122436	1163.2952431694
0	9264	3.16888690432	17959.783017086
0	9267	3.170313722139	700.86032476162
0	9270	3.170386541148	13732.677960503
0	9273	3.17042622437	25199.56670857
0	9276	3.17050839043	12170.475254625
[...]
1	28344	9.500303404442	994.17877492037
1	28347	9.502327270915	994.07226573985
1	28350	9.502429060265	994.16685355781
1	28353	9.502931623027	994.21950770498
1	28356	9.505027273238	994.10551157536
1	28359	9.505329001666	994.17915974752
1	28362	9.505572366924	994.25890784716
1	28365	9.506413159561	994.27616298096
1	28368	9.506810880298	994.33975483729
1	28371	9.508413105728	994.27737256228
1	28374	9.508417387677	994.38209477991
1	28377	9.509382667026	994.38631624205
1	28380	9.510620809525	994.36200742319
1	28383	9.51230956112	994.29060200669
1	28386	9.512892448721	994.33479890459
1	28389	9.513445858456	994.38207151739
1	28392	9.514549238734	994.37185752153
1	28395	9.51464097276	994.46737161069
1	28398	9.51565848085	994.46612328974
1	28401	9.516570220449	994.47592785728
1	28404	9.516783692298	994.55869819339
1	28407	9.517487564059	994.59021472711
1	28410	9.517688004878	994.67433636698
1	28413	9.518083089341	994.73811177409
1	28416	9.52169662473	994.46562657824
1	28419	9.524424213471	994.28582639211
1	28422	9.525227827243	994.30692596266
1	28425	9.525431459765	994.39065201501
1	28428	9.52575223799	994.46214465041
1	28431	9.525818522674	994.56020261664
1	28434	9.526499449947	994.59408461444
1	28437	9.528440194344	994.49645552951
1	28440	9.528993317	994.5436715852
1	28443	9.529274336319	994.61928217099
1	28446	9.529293947962	994.72217477636
1	28449	9.531475380813	994.59943201274
1	28452	9.532284319114	994.61993396366
1	28455	9.532552715312	994.69683338537
1	28458	9.532923201576	994.76307523722
1	28461	9.534055244697	994.74984742459
1	28464	9.534146463443	994.84521623079
1	28467	9.534746601689	994.88747800803
1	28470	9.535476831388	994.91616074946
1	28473	9.537761947186	994.78263900257
1	28476	9.53889293103	994.76952604555
1	28479	9.539108329808	994.85189515517
1	28482	9.539640929144	994.90117819892
1	28485	9.540146573361	994.95326691359
1	28488	9.542359086841	994.82737063322
1	28491	9.542850116247	994.88097207313
1	28494	9.54343054059	994.92524827587
1	28497	9.543686959148	995.00329805953
1	28500	9.545516381674	994.9173643694
1	28503	9.547316506066	994.83451648066
1	28506	9.547526518702	994.91737272403
1	28509	9.548579826673	994.91235057413
1	28512	9.549393291498	994.93231768545
1	28515	9.550253041882	994.94745933219
1	28518	9.552100198743	994.85974835676
1	28521	9.55359897589	994.80834646554
1	28524	9.553854403096	994.88641955019
1	28527	9.554231938003	994.95177233335
1	28530	9.554518369036	995.02660760065
1	28533	9.555059614768	995.07490097757
1	28536	9.555959777524	995.08581255915
1	28539	9.555980123948	995.1883403532
1	28542	9.556096144657	995.28090299905
1	28545	9.556469209515	995.34669044183
1	28548	9.557460622686	995.34807158081
1	28551	9.559436215718	995.24697746889
1	28554	9.559462968647	995.34880057668
1	28557	9.560892067636	995.30461516369
1	28560	9.562373791752	995.25496568738
1	28563	9.562878567116	995.30700230051
1	28566	9.563768998762	995.31889584872
1	28569	9.564311306616	995.36701543943
1	28572	9.564935287368	995.40662994071
1	28575	9.565331021492	995.46999247651
1	28578	9.565451442367	995.56200325486
1	28581	9.567046660464	995.50052780218
1	28584	9.567896590851	995.51661219959
1	28587	9.568633028585	995.54450165895
1	28590	9.568704973359	995.64152375111
1	28593	9.568810579796	995.73504152312
1	28596	9.570089558673	995.70646038147
1	28599	9.57012555419	995.80720712985
1	28602	9.572098184719	995.7064601798
1	28605	9.572217024412	995.79856742598
1	28608	9.572312220367	995.8931322483
1	28611	9.572314985421	995.99731251224
1	28614	9.573299643638	995.99932676677
1	28617	9.573562024227	996.07648395321
1	28620	9.574431189734	996.09050511803
1	28623	9.57446445494	996.19148881782
1	28626	9.576890158819	996.0435842752
1	28629	9.57784407716	996.04878959658
1	28632	9.578814094355	996.05231984017
1	28635	9.57999472111	996.03395176969
1	28638	9.580252813439	996.11149996097
1	28641	9.58102734995	996.13534659723
1	28644	9.582008169378	996.13774391299
1	28647	9.583566829319	996.08007853568
1	28650	9.58555575773	995.97772328444
1	28653	9.585621707478	996.07519380317
1	28656	9.585637579867	996.17786719332
1	28659	9.58626187818	996.21730778474
1	28662	9.586842888992	996.26124164055
1	28665	9.587229128949	996.32541076518
1	28668	9.587496005279	996.40197969731
1	28671	9.588760426781	996.37487795775
1	28674	9.589384019737	996.41436617136
1	28677	9.589623889906	996.49372172548
1	28680	9.589714124793	996.58862356403
1	28683	9.589884404238	996.67520452865
1	28686	9.589963314981	996.77127910045
1	28689	9.590284017904	996.8422188699
1	28692	9.590503246892	996.92370190255
1	28695	9.590593862746	997.0185513895
1	28698	9.590838815386	997.09735343051
1	28701	9.591418401622	997.14136111325
1	28704	9.591943618133	997.1910157935
1	28707	9.592397234128	997.24810873823
1	28710	9.592577184657	997.33364828193
1	28713	9.592772560973	997.41758070302
1	28716	9.596466116996	997.13789256783
1	28719	9.600398197125	996.83365246932
1	28722	9.60123663716	996.85075597002
1	28725	9.602341703553	996.84017664756
1	28728	9.603294451352	996.84541055099
1	28731	9.606540485537	996.61267387714
1	28734	9.606775337978	996.6924033445
1	28737	9.607676437431	996.70300747144
1	28740	9.608134689947	996.75954897056
1	28743	9.609875131685	996.68308575833
1	28746	9.610212207724	996.75218329738
1	28749	9.610353220123	996.8416124332
1	28752	9.611109653401	996.86720321723
1	28755	9.612045371569	996.87419582331
1	28758	9.614806163806	996.69195995591
1	28761	9.615573610953	996.71640900164
1	28764	9.616626720016	996.71124595591
1	28767	9.618294626183	996.64237503236
1	28770	9.618577812671	996.7169977427
1	28773	9.619391406917	996.73665353773
1	28776	9.621131304976	996.66034024924
1	28779	9.621199886231	996.75717305534
1	28782	9.621851547121	996.79359560165
1	28785	9.622356954851	996.84516434035
1	28788	9.624130042745	996.76541748639
1	28791	9.624257637188	996.85610689898
1	28794	9.625366772574	996.84513086187
1	28797	9.62712648555	996.76679374716
1	28800	9.627997912942	996.78044041739
1	28803	9.629110275146	996.76914333131
1	28806	9.629539086242	996.82860353248
1	28809	9.630105835131	996.87377941152
1	28812	9.63329964193	996.64708426701
1	28815	9.63341476604	996.73897918828
1	28818	9.633644585059	996.81900398251
1	28821	9.63364917642	996.92233172736
1	28824	9.633969878662	996.99294485795
1	28827	9.634260499037	997.06666650338
1	28830	9.635527268203	997.03936614895
1	28833	9.635875952284	997.10706609113
1	28836	9.636816133234	997.1135556755
1	28839	9.63721498916	997.17605250162
1	28842	9.638222390877	997.17557971035
1	28845	9.638262919557	997.27513974497
1	28848	9.63889503793	997.31348481044
1	28851	9.63943129506	997.36174321062
1	28854	9.640926096066	997.31082929091
1	28857	9.641148727574	997.39152166566
1	28860	9.641572085689	997.45144407254
1	28863	9.641856713529	997.52571374603
1	28866	9.644271063466	997.37968133624
1	28869	9.647402568159	997.15959109559
1	28872	9.64837374253	997.16286461735
1	28875	9.649671597381	997.13237936631
1	28878	9.651358096755	997.06175063958
1	28881	9.652074894446	997.09130992527
1	28884	9.652116231675	997.19064389361
1	28887	9.654055091816	997.09395776705
1	28890	9.654734745566	997.12734256332
1	28893	9.654904023666	997.2134343749
1	28896	9.655088981801	997.29790353562
1	28899	9.656752980229	997.22960913634
1	28902	9.656967464849	997.31101249502
1	28905	9.657519139938	997.35758846882
1	28908	9.658110357229	997.40007555306
1	28911	9.65891779759	997.42022883804
1	28914	9.659087859578	997.50619727989
1	28917	9.659231623464	997.59487872642
1	28920	9.659362889937	997.68484834954
1	28923	9.659496397376	997.77458404748
1	28926	9.659616902547	997.86566043405
1	28929	9.660131309036	997.91604188473
1	28932	9.660430215169	997.98868013782
1	28935	9.660735333296	998.06067212799
1	28938	9.661346808663	998.10100920437
1	28941	9.662340390531	998.10186872024
1	28944	9.663894980431	998.04478624103
1	28947	9.664150696253	998.12185293633
1	28950	9.666704855315	997.96157474445
1	28953	9.667858248718	997.94595160509
1	28956	9.668348163379	997.99881395953
1	28959	9.669255482574	998.00858684428
1	28962	9.670580067031	997.97529549466
1	28965	9.672254600442	997.90590702182
1	28968	9.675213051406	997.70412793104
1	28971	9.675736653522	997.75348851458
1	28974	9.676969143934	997.7297495107
1	28977	9.677238322962	997.80533223909
1	28980	9.6789056599	997.73676274264
1	28983	9.679106860562	997.81933799615
1	28986	9.679208685606	997.91215519136
1	28989	9.680368532494	997.89589286548
1	28992	9.680800102469	997.95470392329
1	28995	9.680954441285	998.04208961007
1	28998	9.681322710903	998.10741657415
1	29001	9.682217764017	998.11843066733
1	29004	9.682506360734	998.19195980031
1	29007	9.683847041568	998.15702979494
1	29010	9.685181762738	998.12272364284
1	29013	9.685467148785	998.19656104175
1	29016	9.685748799295	998.27077909596
1	29019	9.685907721402	998.35764268466
1	29022	9.685914646482	998.46017159697
1	29025	9.687278382708	998.42284054361
1	29028	9.688411232174	998.40931275472
1	29031	9.689549177533	998.3952630563
1	29034	9.689811130625	998.47147375472
1	29037	9.690295473367	998.52476393457
1	29040	9.690547618797	998.60197593264
1	29043	9.691469988092	998.61011919672
1	29046	9.694349242873	998.4166814617
1	29049	9.694579186472	998.49615066404
1	29052	9.694701609097	998.58669099375
1	29055	9.694995091789	998.65960821373
1	29058	9.69516267415	998.74549045139
1	29061	9.696054908321	998.7567202914
1	29064	9.699441318155	998.5111185602
1	29067	9.701969603967	998.35398330248
1	29070	9.702071722062	998.44654600649
1	29073	9.702330464029	998.52298743254
1	29076	9.703300715441	998.52620094333
1	29079	9.704072327176	998.5498534325
1	29082	9.704378691911	998.62137573813
1	29085	9.706871893086	998.46790055027
1	29088	9.706991914198	998.55857362181
1	29091	9.708387392076	998.51804511965
1	29094	9.711326256315	998.31884380319
1	29097	9.711514646289	998.40244834569
1	29100	9.711675875899	998.48884208179
1	29103	9.711797046589	998.5793518416
1	29106	9.711915084818	998.67018145183
1	29109	9.712504049836	998.71258227828
1	29112	9.712846165134	998.78036108751
1	29115	9.713462549651	998.81993165749
1	29118	9.713509099485	998.91809444173
1	29121	9.714629495773	998.90582592186
1	29124	9.715063204089	998.96416483582
1	29127	9.71789123979	998.77635595042
1	29130	9.718478966154	998.81885157194
1	29133	9.720851983082	998.67789540419
1	29136	9.721462359698	998.71805709502
1	29139	9.723034927642	998.65937665153
1	29142	9.724173133079	998.64532100584
1	29145	9.725453079964	998.61671432134
1	29148	9.728310836857	998.42615669732
1	29151	9.729002569731	998.45795397591
1	29154	9.73307406456	998.14302609431
1	29157	9.734390910652	998.11072815744
1	29160	9.734411573019	998.21133790282
1	29163	9.736514018714	998.0984961683
1	29166	9.738277444118	998.0204462002
1	29169	9.738770864095	998.07256332889
1	29172	9.739211896461	998.13004412938
1	29175	9.73928515159	998.22521352225
1	29178	9.740117964486	998.24253006499
1	29181	9.740613305248	998.29442923896
1	29184	9.741975534206	998.25748544057
1	29187	9.743236330242	998.23094404592
1	29190	9.744571659766	998.19677453463
1	29193	9.748894104823	997.85677179398
1	29196	9.749085666286	997.93973845614
1	29199	9.749176100959	998.03305420269
1	29202	9.749994780735	998.05181631763
1	29205	9.75194348396	997.95492211447
1	29208	9.753028704408	997.94641182601
1	29211	9.7533228028	998.01884924854
1	29214	9.754151379455	998.03659193814
1	29217	9.755218845542	998.0298908875
1	29220	9.755696406454	998.0835395368
1	29223	9.75615103237	998.13952937898
1	29226	9.756509943413	998.20530666042
1	29229	9.758130174887	998.14204416604
1	29232	9.758148175241	998.24268140501
1	29235	9.758297505804	998.3298822572
1	29238	9.759301641991	998.32963027591
1	29241	9.759399039403	998.42213241401
1	29244	9.759426136524	998.52182532844
1	29247	9.763380780721	998.21979894963
1	29250	9.764926460173	998.16419916257
1	29253	9.765148266209	998.24393181327
1	29256	9.766835854573	998.17383492069
1	29259	9.769274693788	998.02700871946
1	29262	9.771534080412	997.89858171265
1	29265	9.771570339142	997.99721657187
1	29268	9.773465670531	997.90599658085
1	29271	9.773586807592	997.99594478695
1	29274	9.773993791719	998.05670106573
1	29277	9.774255938892	998.13224259666
1	29280	9.774263836206	998.23374563084
1	29283	9.774579333049	998.30383155284
1	29286	9.776158705542	998.24484175648
1	29289	9.776742430453	998.28752464616
1	29292	9.77971052738	998.08680151344
1	29295	9.779727104647	998.187362034
1	29298	9.782180312132	998.03926000953
1	29301	9.783692478254	997.98721410165
1	29304	9.784520274151	998.00498403559
1	29307	9.784668174043	998.09209942423
1	29310	9.78469945814	998.19110865738
1	29313	9.785334506185	998.2285218585
1	29316	9.788441673053	998.01381326034
1	29319	9.789280378067	998.03046012348
1	29322	9.790653450039	997.99263142759
1	29325	9.792825223952	997.87342023617
1	29328	9.793936867807	997.86226232723
1	29331	9.796481663892	997.70512877344
1	29334	9.797295442419	997.7243268257
1	29337	9.797690943442	997.78611679352
1	29340	9.798053399584	997.85126711139
1	29343	9.798466511529	997.9112536125
1	29346	9.799570526831	997.90087465826
1	29349	9.801436137135	997.81295956683
1	29352	9.802011445361	997.85641493298
1	29355	9.80367796658	997.78879246606
1	29358	9.803750857095	997.88337572043
1	29361	9.804116137861	997.94819465843
1	29364	9.804363898678	998.02497144352
1	29367	9.804387361312	998.12457824906
1	29370	9.80731338613	997.92875119513
1	29373	9.81027357995	997.72956587108
1	29376	9.811173391005	997.73998581807
1	29379	9.811985455089	997.75932657161
1	29382	9.812124995029	997.8470519852
1	29385	9.815700778546	997.58542165448
1	29388	9.817398014005	997.51481869532
1	29391	9.818852211662	997.4689290432
1	29394	9.820672636681	997.38585760561
1	29397	9.82314809574	997.23631411484
1	29400	9.823988299772	997.25281637676
1	29403	9.826353286245	997.11456677579
1	29406	9.826592934526	997.19201408771
1	29409	9.826934105225	997.25915479471
1	29412	9.828222740129	997.23014619746
1	29415	9.831517598837	996.99765590203
1	29418	9.832415392141	997.00832491633
1	29421	9.832733255795	997.07779565991
1	29424	9.833229129601	997.1292106358
1	29427	9.833280412856	997.22570579597
1	29430	9.834403929502	997.2134630936
1	29433	9.835030711628	997.25158848807
1	29436	9.835606426254	997.29488705618
1	29439	9.836553174278	997.30056110026
1	29442	9.837675463805	997.2884383203
1	29445	9.839335622781	997.22180197637
1	29448	9.839504480894	997.30631954633
1	29451	9.841212173149	997.2348758801
1	29454	9.841436431064	997.3137629604
1	29457	9.844835037255	997.07104922064
1	29460	9.846115309978	997.04296475703
1	29463	9.847562247746	996.99801361979
1	29466	9.849977392805	996.85507980682
1	29469	9.850493471923	996.90437113532
1	29472	9.8523596623	996.81704044768
1	29475	9.852525599748	996.90174875072
1	29478	9.853643348942	996.89015038835
1	29481	9.854996807566	996.85471155686
1	29484	9.855088952414	996.94686140741
1	29487	9.855096942377	997.04752347469
1	29490	9.855445857893	997.1136914247
1	29493	9.856366782261	997.12198390262
1	29496	9.857346367026	997.12434097671
1	29499	9.85782596575	997.17727155595
1	29502	9.858897889673	997.17028313051
1	29505	9.85912131534	997.24911435081
1	29508	9.859546688279	997.30751431903
1	29511	9.861156578232	997.24610617258
1	29514	9.862299128409	997.23197116072
1	29517	9.864462380549	997.11465466125
1	29520	9.864891497604	997.17265034179
1	29523	9.866659247634	997.09534433949
1	29526	9.86677031094	997.18547102397
1	29529	9.866886606502	997.2750668398
1	29532	9.868356915003	997.22781459582
1	29535	9.86857493549	997.30711519508
1	29538	9.878227748698	996.43379869404
1	29541	9.878491283666	996.50844621151
1	29544	9.879817486459	996.47589780816
1	29547	9.882675823863	996.28887717085
1	29550	9.882811405464	996.37639493513
1	29553	9.882992149357	996.45935675874
1	29556	9.885180987026	996.33987611623
1	29559	9.886851598945	996.27266591632
1	29562	9.887703878798	996.28792698002
1	29565	9.889114120667	996.24697215401
1	29568	9.890316866079	996.22692916877
1	29571	9.892089913707	996.14945739078
1	29574	9.892550158971	996.20419827369
1	29577	9.892605429847	996.29971799577
1	29580	9.89315945962	996.34500386175
1	29583	9.894914938764	996.26930206147
1	29586	9.89618124441	996.24286949767
1	29589	9.898703014712	996.09009234296
1	29592	9.901858752958	995.87362797457
1	29595	9.902231108199	995.93716731518
1	29598	9.904735064811	995.78635223074
1	29601	9.905318795581	995.82862536444
1	29604	9.905641215168	995.89716462719
1	29607	9.905812829361	995.98086193967
1	29610	9.907224578659	995.93987414541
1	29613	9.907709018677	995.99210891215
1	29616	9.909269022194	995.93622676871
1	29619	9.909695294083	995.99429721046
1	29622	9.90985157785	996.07949952179
1	29625	9.912015187242	995.96296146787
1	29628	9.912489868211	996.01615045906
1	29631	9.912683332128	996.09759226317
1	29634	9.913225620791	996.14397752525
1	29637	9.913684292555	996.19876007315
1	29640	9.913687412568	996.29931719236
1	29643	9.914140120517	996.35468935503
1	29646	9.914802540341	996.38898100135
1	29649	9.915017609939	996.46822513922
1	29652	9.915640884992	996.50644013899
1	29655	9.916453139628	996.52565900903
1	29658	9.917725478607	996.49864490786
1	29661	9.917735111927	996.59850645875
1	29664	9.922198126976	996.25101953217
1	29667	9.923193301833	996.25188175805
1	29670	9.92320763366	996.35121676411
1	29673	9.923495430713	996.42309194771
1	29676	9.924070570576	996.46611031969
1	29679	9.924619569803	996.5117484293
1	29682	9.924639495903	996.61050701974
1	29685	9.92668133194	996.50625110444
1	29688	9.927345467843	996.54031705109
1	29691	9.927530594413	996.62246375429
1	29694	9.93029591579	996.44563303155
1	29697	9.931296682231	996.4459140271
1	29700	9.93476975107	996.19822582542
1	29703	9.934956860314	996.28011869265
1	29706	9.93608734144	996.26740988021
1	29709	9.939278288262	996.04817501605
1	29712	9.939357495153	996.140847618
1	29715	9.940359108555	996.14107416683
1	29718	9.940537443668	996.22380139095
1	29721	9.941207346631	996.25726077994
1	29724	9.94206638456	996.27176251634
1	29727	9.942074313837	996.37155057403
1	29730	9.942219844682	996.45754718441
1	29733	9.942309846099	996.54910713606
1	29736	9.943156072796	996.5648660701
1	29739	9.945163120006	996.46429932001
1	29742	9.948445390934	996.23605604066
1	29745	9.949142413744	996.26677233078
1	29748	9.949507163666	996.33075658267
1	29751	9.952888885473	996.09270374456
1	29754	9.953159489029	996.16609288025
1	29757	9.95445341499	996.13706414738
1	29760	9.954660312797	996.21681588185
1	29763	9.955081777538	996.27509061536
1	29766	9.956201368853	996.2634977463
1	29769	9.95726523109	996.25748333251
1	29772	9.957494483555	996.33497325906
1	29775	9.957527747513	996.43207145249
1	29778	9.957758359553	996.50941925904
1	29781	9.957794589445	996.60621745694
1	29784	9.95784700993	996.70139439808
1	29787	9.958128907712	996.77359993933
1	29790	9.960188308045	996.66790355578
1	29793	9.960265433892	996.7605849356
1	29796	9.960386581988	996.84885905485
1	29799	9.961487685722	996.83905790827
1	29802	9.962600294672	996.82810774925
1	29805	9.965011859105	996.68722329971
1	29808	9.965200995956	996.76865564788
1	29811	9.96605639356	996.78344248777
1	29814	9.968521844761	996.63723014475
1	29817	9.970357792001	996.55400611314
1	29820	9.97114420698	996.57569820762
1	29823	9.971979497298	996.59250229032
1	29826	9.974479900193	996.44293230845
1	29829	9.974569074551	996.5342788954
1	29832	9.975263478945	996.56515549516
1	29835	9.976209595129	996.57088247768
1	29838	9.977579347054	996.5342949576
1	29841	9.977668607521	996.6256037512
1	29844	9.977715865545	996.72110671562
1	29847	9.977813118631	996.81161410293
1	29850	9.98000706475	996.69268122399
1	29853	9.981234173709	996.67033423617
1	29856	9.984623006156	996.43221320084
1	29859	9.986373210542	996.35771568164
1	29862	9.987250339318	996.37033837279
1	29865	9.988140614984	996.38164735789
1	29868	9.989509175338	996.34524833031
1	29871	9.992697622888	996.1274097998
1	29874	9.993938783203	996.10376008422
1	29877	9.995309201941	996.06723502527
1	29880	9.996564172484	996.04222292766
1	29883	9.998210597202	995.97822062147
1	29886	9.99901101507	995.99850275095

