file 79623714 1639737633                                        
version 2
run warm-up-2-20211217-11:40:29-17824
attr configname warm-up
attr datetime 20211217-11:40:29
attr experiment warm-up
attr inifile omnetpp.ini
attr iterationvars ""
attr iterationvarsf ""
attr measurement ""
attr network Network
attr processid 17824
attr repetition 2
attr replication #2
attr resultdir results
attr runnumber 2
attr seedset 2
param **.server.p1 0.2
param **.server.p2 0.7
param **.clients.num_clients 60
param **.processor.service_rate 1000
param **.disk.service_rate 100
param **.webServer.serv_rate_w 50
param **.clients.timeWindow 10s

vector 0 Network.server.processor processor_backlog:vector ETV
attr source processor_backlog_s
vector 1 Network.server.disk disk_backlog:vector ETV
attr source disk_backlog_s
vector 2 Network.webServer wserver_backlog:vector ETV
attr source wserver_backlog_s
vector 3 Network.clients pkt_counter:vector ETV
attr source pkt_counter_s
0	931 900750 1 124433 0 228.746360883382 32768 1 59 37164 182106
1	901681 947722 71 177557 0.005810890947 326.571615276784 32768 1 59 1912452 111739004
0	1849403 946661 124437 249022 228.773242276108 457.078572492105 32768 1 4 33604 35492
1	2796064 979476 177564 354730 326.579627563635 652.455306067594 32768 51 59 1915528 111999354
0	3775540 946471 249026 373551 457.086400684019 686.23875096603 32768 1 7 33595 35595
0	4722011 946655 373555 498015 686.258495491631 915.313985552271 32768 1 5 33575 35453
1	5668666 979388 354732 533152 652.455394425131 979.582091972046 32768 49 59 1914218 111850612
0	6648054 967174 498018 622483 915.314583272064 1143.835739736457 32768 1 6 33523 35245
1	7615228 1009955 533160 711672 979.604761624235 1309.010897345914 32768 51 59 1914923 111930187
0	8625183 979289 622486 746960 1143.835801258015 1374.91352536113 32768 1 7 33570 35546
0	9604472 979364 746964 871385 1374.916844839649 1602.109699329081 32768 1 4 33626 35624
1	10583836 1012205 711676 889764 1309.015420322419 1635.985500269437 32768 52 59 1915204 111961540
0	11596041 979317 871389 995940 1602.119561924138 1832.727719644283 32768 1 4 33495 35157
1	12575358 1024487 889768 1067884 1635.989274548295 1963.822485078083 32768 52 59 1914121 111838251
0	13599845 1011113 995944 1120440 1832.731341945964 2060.749734273462 32768 1 4 33561 35399
0	14610958 1012295 1120443 1245024 2060.750475579207 2292.569510612983 32768 1 4 33482 35166
1	15623253 1045000 1067888 1245428 1963.844310502916 2293.257319882913 32768 52 59 1915065 111946647
2	16668253 967195 82 1246098 0.010771148461 2294.620348397478 32768 1 8 36488 46926
0	17635448 1012048 1245027 1369512 2292.569538332048 2522.482570179364 32768 1 4 33494 35162
1	18647496 1044976 1245432 1423401 2293.269407583864 2621.862267023147 32768 48 59 1914956 111934000
0	19692472 1012261 1369516 1494036 2522.49750513428 2749.953506847095 32768 1 4 33461 35059
1	20704733 1044912 1423403 1601182 2621.862539126003 2948.563127875655 32768 53 59 1915349 111978141
0	21749645 1012157 1494040 1618504 2749.957346235113 2980.195376090355 32768 1 4 33460 35028
0	22761802 1012223 1618506 1743011 2980.195865438902 3206.766111020704 32768 1 5 33496 35188
1	23774025 1044967 1601186 1778829 2948.58377269124 3272.407722282812 32768 52 59 1914459 111876899
0	24818992 1012165 1743014 1867528 3206.767347611393 3436.562952848874 32768 1 4 33552 35314
1	25831157 1044865 1778833 1956238 3272.421493082363 3602.526169410276 32768 51 59 1915088 111949786
0	26876022 1012120 1867531 1992018 3436.56388192096 3667.318881648811 32768 1 4 33638 35718
0	27888142 1012057 1992021 2116615 3667.320457730097 3894.964635001918 32768 1 4 33501 35145
1	28900199 1045019 1956244 2133944 3602.547723370541 3926.456543147016 32768 50 59 1914669 111901705
0	29945218 1012059 2116619 2241095 3894.982414576979 4125.535585085922 32768 1 4 33470 35078
1	30957277 1044851 2133950 2312153 3926.460417660811 4258.323244666533 32768 52 59 1914679 111903327
0	32002128 1012250 2241098 2365619 4125.535702665512 4359.589142723467 32768 1 4 33510 35186
0	33014378 1012199 2365623 2490018 4359.59948617806 4588.488885741034 32768 1 5 33535 35301
1	34026577 1044964 2312162 2490036 4258.332168078592 4588.523191223452 32768 52 59 1915696 112017876
2	35071541 1012271 1246132 2500927 2294.678868493439 4608.621468015574 32768 1 7 36519 46939
0	36083812 1012135 2490020 2614586 4588.490831986601 4818.557113582084 32768 1 5 33512 35258
1	37095947 1044863 2490040 2667972 4588.526436714163 4914.143097570183 32768 50 59 1914707 111905453
0	38140810 1012151 2614592 2739083 4818.55880946815 5042.723052168729 32768 1 4 33512 35222
1	39152961 1044885 2667979 2845604 4914.146939203745 5241.783495828996 32768 53 59 1915080 111947564
0	40197846 1012199 2739085 2863513 5042.723311016389 5274.350676363136 32768 1 4 33523 35251
0	41210045 1012175 2863515 2988006 5274.352157175732 5503.45248802049 32768 1 4 33532 35286
1	42222220 1044940 2845610 3023333 5241.789858389575 5569.792121677801 32768 51 59 1914372 111866960
0	43267160 1012112 2988012 3112615 5503.456588594531 5732.028073486585 32768 1 5 33510 35172
1	44279272 1044918 3023341 3200952 5569.804214704343 5894.55290913966 32768 49 59 1914672 111901284
0	45324190 1012146 3112619 3237085 5732.032053520695 5959.146803240792 32768 1 5 33594 35560
0	46336336 1012122 3237089 3361701 5959.160653057779 6189.279258789901 32768 1 7 33595 35601
1	47348458 1044916 3200959 3379087 5894.563429585984 6221.311448297606 32768 50 59 1914932 111930564
0	48393374 1012104 3361704 3486410 6189.279483027551 6422.919464212731 32768 1 5 33522 35294
1	49405478 1044894 3379093 3556564 6221.328325285007 6551.697768366155 32768 51 59 1915184 111960036
0	50450372 1012041 3486414 3610844 6422.930736664089 6653.301667575814 32768 1 8 33545 35431
1	51462413 1044880 3556568 3734537 6551.715159544539 6880.11617972391 32768 49 59 1914280 111856808
0	52507293 1012131 3610848 3735391 6653.305115229357 6881.731554945489 32768 1 4 33452 35002
2	53519424 1012206 2500931 3745890 4608.623659570669 6901.0443569505 32768 1 8 36566 47344
0	54531630 1012151 3735395 3859876 6881.733000141915 7109.550965245092 32768 1 6 33489 35157
1	55543781 1044888 3734541 3913280 6880.117508931762 7207.300349465446 32768 53 59 1914501 111880447
0	56588669 1012258 3859878 3984525 7109.55184299593 7341.159176754565 32768 1 5 33578 35514
1	57600927 1044900 3913293 4090116 7207.329541942613 7537.285600160154 32768 51 59 1916038 112059372
0	58645827 1012232 3984531 4108916 7341.171667019502 7570.767928975251 32768 1 5 33495 35141
0	59658059 1012126 4108922 4233523 7570.782040488496 7800.539706739108 32768 1 4 33548 35324
1	60670185 1044882 4090125 4268139 7537.293820502968 7864.774109373346 32768 51 59 1914527 111884681
0	61715067 1012168 4233527 4358094 7800.579457279037 8030.521144817184 32768 1 5 33592 35494
1	62727235 1044926 4268143 4445953 7864.776004357187 8189.56848413913 32768 51 59 1914447 111874369
0	63772161 1012131 4358100 4482536 8030.547763698681 8257.814184863867 32768 1 4 33591 35493
0	64784292 1012166 4482538 4607023 8257.81499497347 8486.550203478166 32768 1 4 33535 35295
1	65796458 1044754 4445960 4624113 8189.574133895925 8518.197247957162 32768 51 59 1915139 111954971
0	66841212 1012207 4607025 4731536 8486.551326883295 8715.613726064291 32768 1 5 33534 35338
1	67853419 1045024 4624117 4802340 8518.200826918312 8847.336411871698 32768 50 59 1914778 111914272
0	68898443 1012126 4731542 4855885 8715.625317865152 8945.82889584957 32768 1 5 33523 35295
0	69910569 1012126 4855888 4980385 8945.831157809637 9174.723018770138 32768 1 5 33616 35626
1	70922695 1044914 4802344 4980880 8847.358662679122 9175.443434918672 32768 48 59 1914066 111834472
2	71967609 1012293 3746005 4987702 6901.25250558828 9187.580202967116 32768 1 9 36392 46826
0	72979902 1012114 4980389 5104987 9174.726943979779 9402.974351674814 32768 1 5 33514 35232
1	73992016 1044911 4980884 5158395 9175.444648253852 9501.060367651758 32768 51 59 1914345 111863311
0	75036927 1012095 5104991 5229488 9403.008385945217 9631.689511402146 32768 1 4 33522 35188
1	76049022 1044967 5158397 5335924 9501.061802128102 9827.478073002391 32768 51 59 1914543 111887663
0	77093989 1012200 5229491 5354065 9631.693275519897 9861.045158190774 32768 1 6 33592 35618
0	78106189 611832 5354069 5429314 9861.04637764558 9999.987399481123 19810 1 4 20280 21392
1	78718021 547821 5335928 5429316 9827.488194391144 9999.987467642081 17178 53 59 1004434 58742306
2	79265842 357855 4987741 5429318 9187.673630816335 9999.988090364109 11585 1 6 12894 16504
3	79623697 15 5699 5699 10 10 1 294 294 294 86436

