file 79595464 1639737625                                        
version 2
run warm-up-0-20211217-11:40:21-17824
attr configname warm-up
attr datetime 20211217-11:40:21
attr experiment warm-up
attr inifile omnetpp.ini
attr iterationvars ""
attr iterationvarsf ""
attr measurement ""
attr network Network
attr processid 17824
attr repetition 0
attr replication #0
attr resultdir results
attr runnumber 0
attr seedset 0
param **.server.p1 0.2
param **.server.p2 0.7
param **.clients.num_clients 60
param **.processor.service_rate 1000
param **.disk.service_rate 100
param **.webServer.serv_rate_w 50
param **.clients.timeWindow 10s

vector 0 Network.server.processor processor_backlog:vector ETV
attr source processor_backlog_s
vector 1 Network.server.disk disk_backlog:vector ETV
attr source disk_backlog_s
vector 2 Network.webServer wserver_backlog:vector ETV
attr source wserver_backlog_s
vector 3 Network.clients pkt_counter:vector ETV
attr source pkt_counter_s
0	931 900866 1 124498 0 228.932435817602 32768 1 59 35917 137047
1	901797 947736 62 177443 0.000795874505 326.350073030976 32768 1 59 1913062 111785112
0	1849533 946614 124502 249078 228.936848373615 458.403223284987 32768 1 4 33495 35131
1	2796147 979355 177447 355481 326.352998554359 653.210936018745 32768 51 59 1914721 111907261
0	3775502 946654 249082 373557 458.412488011081 686.673559381905 32768 1 4 33583 35489
0	4722156 946653 373563 498072 686.684202210295 915.380594473517 32768 1 5 33575 35511
1	5668809 979397 355488 533618 653.23065939633 980.262170367243 32768 50 59 1914474 111878998
0	6648206 967067 498076 622732 915.389538775854 1142.958928865185 32768 1 5 33471 35041
1	7615273 1010192 533633 711728 980.290328075417 1306.085619924105 32768 50 59 1913893 111812563
0	8625465 979392 622738 747209 1142.961295517468 1371.809120318655 32768 1 8 33670 36072
0	9604857 979467 747213 871624 1371.813959254102 1597.520138453557 32768 1 5 33681 35851
1	10584324 1012109 711732 890628 1306.105870217448 1632.156942888245 32768 50 59 1914129 111840233
0	11596433 979361 871626 996070 1597.520479553327 1826.47435109368 32768 1 4 33584 35434
1	12575794 1024874 890635 1068840 1632.157825375559 1960.654178692651 32768 52 59 1914694 111904196
0	13600668 1011203 996074 1120548 1826.487429425691 2056.104047778884 32768 1 5 33658 35762
2	14611871 966730 135 1232094 0.033392779298 2263.251692633683 32768 1 8 36622 47900
0	15578601 1012176 1120552 1245031 2056.10794280263 2287.305483689012 32768 1 4 33466 35030
1	16590777 1044978 1068847 1247230 1960.66312458972 2291.711665991709 32768 52 59 1915120 111953202
0	17635755 1012095 1245035 1369633 2287.322223664733 2520.413863501124 32768 1 6 33484 35222
1	18647850 1044993 1247234 1424933 2291.715051520596 2621.949638262401 32768 51 59 1913916 111814544
0	19692843 1012232 1369635 1494030 2520.414421569245 2747.380042837412 32768 1 5 33628 35636
1	20705075 1044914 1424939 1602720 2621.95708380341 2949.649085429299 32768 53 59 1915189 111959765
0	21749989 1012071 1494036 1618620 2747.410746644434 2978.893869299719 32768 1 4 33475 35065
0	22762060 1012117 1618622 1743107 2978.894468291794 3210.327909258147 32768 1 6 33499 35215
1	23774177 1044843 1602726 1780306 2949.651682316731 3279.627714880084 32768 51 59 1915726 112021758
0	24819020 1012135 1743109 1867664 3210.328519192844 3442.121017652655 32768 1 5 33544 35322
1	25831155 1044882 1780315 1957871 3279.634067594996 3608.712857892406 32768 51 59 1915079 111948047
0	26876037 1012191 1867670 1992227 3442.141778665509 3670.729626288656 32768 1 4 33498 35154
0	27888228 1012110 1992231 2116841 3670.738434545784 3899.149053598401 32768 1 5 33504 35190
1	28900338 1044881 1957875 2135184 3608.714466836999 3932.847715855182 32768 52 59 1914967 111934297
0	29945219 1012006 2116847 2241330 3899.150716663255 4129.014988440199 32768 1 5 33628 35704
1	30957225 1044921 2135188 2313670 3932.857415094533 4260.768930256602 32768 52 59 1914230 111849884
0	32002146 1012315 2241334 2365790 4129.015413692113 4355.665718848293 32768 1 5 33508 35212
2	33014461 1012216 1232121 2480011 2263.313030300026 4566.092339638004 32768 1 7 36349 46143
0	34026677 1012140 2365792 2490289 4355.667624548672 4585.55094723833 32768 1 5 33505 35261
1	35038817 1045042 2313672 2491700 4260.768992256427 4588.576841296318 32768 50 59 1914861 111923719
0	36083859 1012257 2490291 2614827 4585.554085078474 4814.358712600951 32768 1 4 33581 35535
1	37096116 1044904 2491704 2669840 4588.587525646809 4916.579475158283 32768 53 59 1914947 111932523
0	38141020 1012135 2614831 2739312 4814.378824360198 5044.124203547116 32768 1 5 33627 35633
1	39153155 1044897 2669845 2847058 4916.581785343742 5244.351560279887 32768 51 59 1914862 111922494
0	40198052 1012090 2739316 2863887 5044.1398975492 5275.561375317034 32768 1 6 33564 35442
0	41210142 1012164 2863891 2988434 5275.571806731183 5505.948658162334 32768 1 6 33680 35968
1	42222306 1044982 2847065 3025044 5244.359113771817 5571.914803110314 32768 49 59 1914303 111858811
0	43267288 1012133 2988437 3112929 5505.951631135207 5735.122565390497 32768 1 6 33696 35938
1	44279421 1044822 3025048 3202621 5571.917428977837 5901.695304016024 32768 52 59 1915040 111943578
0	45324243 1012084 3112933 3237467 5735.131988102471 5966.16711458833 32768 1 6 33600 35560
0	46336327 1012194 3237471 3361961 5966.171375317617 6195.490177003215 32768 1 6 33614 35664
1	47348521 1044906 3202623 3380615 5901.696493212513 6230.075070696345 32768 50 59 1914643 111899267
0	48393427 1012238 3361965 3486458 6195.49499960535 6426.897790829558 32768 1 5 33531 35245
1	49405665 1044939 3380621 3558227 6230.084301511768 6558.217155144672 32768 51 59 1914795 111916171
0	50450604 1012109 3486460 3610870 6426.898084737434 6654.216244929257 32768 1 5 33591 35529
2	51462713 1012129 2480019 3734088 4566.111082917954 6880.429530123927 32768 1 8 36484 46966
0	52474842 1012120 3610874 3735446 6654.230776129563 6883.07803936949 32768 1 4 33521 35231
1	53486962 1044969 3558229 3735890 6558.219100914694 6883.823872306162 32768 52 59 1914395 111869981
0	54531931 1012179 3735449 3860056 6883.078606367442 7112.27918421936 32768 1 5 33548 35356
1	55544110 1044935 3735894 3913505 6883.830207793181 7211.333973428726 32768 52 59 1914934 111931022
0	56589045 1012099 3860060 3984510 7112.303429597839 7341.974611130376 32768 1 5 33539 35329
1	57601144 1045017 3913507 4090967 7211.336256332349 7538.498103779587 32768 52 59 1914610 111893988
0	58646161 1012120 3984513 4109153 7341.974878559903 7572.791777178456 32768 1 5 33533 35353
0	59658281 1012154 4109157 4233720 7572.796578169409 7802.888782381051 32768 1 4 33578 35462
1	60670435 1044977 4090971 4268156 7538.529434228643 7864.597983483593 32768 52 59 1914690 111903240
0	61715412 1012261 4233723 4358381 7802.889052301622 8030.569440665077 32768 1 5 33574 35442
1	62727673 1044989 4268158 4446330 7864.598806663932 8190.649029634685 32768 52 59 1915101 111949859
0	63772662 1012210 4358385 4482785 8030.571914080674 8259.038196295394 32768 1 4 33527 35261
0	64784872 1012190 4482788 4607313 8259.040374825323 8489.649958704727 32768 1 5 33563 35465
1	65797062 1044877 4446334 4624849 8190.6555613394 8522.444496677221 32768 52 59 1915245 111967025
0	66841939 1012068 4607316 4731879 8489.650509371879 8721.46898505989 32768 1 5 33631 35713
1	67854007 1044952 4624856 4802759 8522.452862894326 8853.412127995277 32768 52 59 1914696 111904292
0	68898959 1012154 4731883 4856374 8721.47616001251 8952.590768801472 32768 1 5 33502 35214
2	69911113 1011992 3734110 4976204 6880.466586065745 9172.10569850976 32768 1 6 36537 46853
1	70923105 1044998 4802763 4980322 8853.418710815953 9179.896465281073 32768 52 59 1914411 111870859
0	71968103 1012139 4856378 4980882 8952.610978968117 9180.86785779999 32768 1 4 33666 35794
0	72980242 1012209 4980884 5105346 9180.868005485254 9410.169563062663 32768 1 5 33580 35506
1	73992451 1044896 4980326 5158034 9179.914482947104 9505.999346679864 32768 53 59 1915381 111981409
0	75037347 1012097 5105350 5229740 9410.172770279164 9637.606934817399 32768 1 4 33509 35197
1	76049444 1044921 5158039 5335765 9506.000044106726 9832.176313665946 32768 53 59 1915888 112040340
0	77094365 1012141 5229744 5354179 9637.610177159177 9865.545630375291 32768 1 4 33532 35278
0	78106506 593883 5354181 5427224 9865.547261793302 9999.997923285791 19224 1 5 19765 21023
1	78700389 537954 5335776 5427226 9832.186591899493 9999.998225831281 16868 49 59 985562 57598230
2	79238343 357104 4976253 5427186 9172.195211951034 9999.863143324831 11561 1 9 12655 15783
3	79595447 15 5556 5556 10 10 1 285 285 285 81225

