version 2
run warm-up-2-20211217-15:46:41-6360
attr configname warm-up
attr datetime 20211217-15:46:41
attr experiment warm-up
attr inifile omnetpp.ini
attr iterationvars ""
attr iterationvarsf ""
attr measurement ""
attr network Network
attr processid 6360
attr repetition 2
attr replication #2
attr resultdir results
attr runnumber 2
attr seedset 2
param **.server.p1 0.3
param **.server.p2 0.5
param **.clients.num_clients 60
param **.processor.service_rate 1000
param **.disk.service_rate 100
param **.webServer.serv_rate_w 50
param **.clients.timeWindow 10s

vector 0 Network.server.processor processor_backlog:vector ETV
attr source processor_backlog_s
vector 1 Network.server.disk disk_backlog:vector ETV
attr source disk_backlog_s
vector 2 Network.webServer wserver_backlog:vector ETV
attr source wserver_backlog_s
vector 3 Network.clients pkt_counter:vector ETV
attr source pkt_counter_s
0	1	0	1
0	2	0	1
0	3	0	2
0	4	0	3
0	5	0	4
0	6	0	5
0	7	0	6
0	8	0	7
0	9	0	8
0	10	0	9
0	11	0	10
0	12	0	11
0	13	0	12
0	14	0	13
0	15	0	14
0	16	0	15
0	17	0	16
0	18	0	17
0	19	0	18
0	20	0	19
0	21	0	20
0	22	0	21
0	23	0	22
0	24	0	23
0	25	0	24
0	26	0	25
0	27	0	26
0	28	0	27
0	29	0	28
0	30	0	29
0	31	0	30
0	32	0	31
0	33	0	32
0	34	0	33
0	35	0	34
0	36	0	35
0	37	0	36
0	38	0	37
0	39	0	38
0	40	0	39
0	41	0	40
0	42	0	41
0	43	0	42
0	44	0	43
0	45	0	44
0	46	0	45
0	47	0	46
0	48	0	47
0	49	0	48
0	50	0	49
0	51	0	50
0	52	0	51
0	53	0	52
0	54	0	53
0	55	0	54
0	56	0	55
0	57	0	56
0	58	0	57
0	59	0	58
0	60	0	59
0	63	0.002066955051	59
0	66	0.002078131716	59
0	69	0.005537191235	59
0	73	0.005915174395	59
0	78	0.008318973956	58
0	87	0.011584851329	55
0	91	0.012377753658	55
0	94	0.01254315145	55
0	97	0.013106093193	55
0	108	0.01838356221	51
0	112	0.01934678783	51
0	121	0.023396870752	48
0	127	0.026260882057	47
0	136	0.030470157515	44
0	145	0.031823261157	41
0	149	0.033108175126	41
0	151	0.033183892057	42
0	153	0.034620627513	43
0	156	0.036125387227	43
0	160	0.038421881079	43
0	167	0.038911721554	41
0	170	0.039222641053	41
0	176	0.039954687738	40
0	178	0.040088803187	41
0	180	0.040279837361	42
0	182	0.042554955296	43
0	191	0.045326159815	40
0	196	0.045916713217	39
0	199	0.045990298235	39
0	204	0.046825120126	38
0	206	0.047377972052	39
0	209	0.047582250734	39
0	211	0.047797377938	40
0	222	0.054396026017	36
0	229	0.059828484509	34
0	239	0.061445081059	31
0	245	0.063528665195	30
0	250	0.064864393444	29
0	260	0.068950249036	26
0	268	0.070429761292	24
0	273	0.072244585399	23
0	277	0.073281296324	23
0	284	0.07405093627	21
0	286	0.074773413558	22
0	289	0.075097252135	22
0	291	0.075651453965	23
0	296	0.076171209517	22
0	299	0.077758761458	22
0	306	0.078986148865	20
0	309	0.079593940378	20
0	311	0.080691375093	21
0	313	0.081528306887	22
0	316	0.081954223643	22
0	319	0.083515693356	22
0	323	0.084930191291	22
0	341	0.091755320823	15
0	346	0.09242135569	14
0	348	0.093232644338	15
0	352	0.093579852689	15
0	357	0.093938482911	14
0	360	0.095791213486	14
0	364	0.097373570882	14
0	373	0.099980271669	11
0	378	0.101877341431	10
0	387	0.109335599257	7
0	390	0.110028218287	7
0	408	0.118456845004	1
0	412	0.120863070354	1
0	416	0.123140114254	1
0	420	0.15329212582	1
0	423	0.153305622594	1
0	427	0.156528346959	1
0	430	0.156554603627	1
0	434	0.166559484759	1
0	438	0.166954675427	1
0	442	0.170331660105	1
0	445	0.171860590782	1
0	449	0.187840478477	1
0	452	0.190700459659	1
0	456	0.192933076392	1
0	460	0.193442955604	1
0	464	0.197857456754	1
0	467	0.199226535521	1
0	471	0.201344938497	1
0	475	0.213354957109	1
0	479	0.222560398338	1
0	482	0.223933704014	1
0	486	0.225446433784	1
0	489	0.226130766031	1
0	493	0.233950523235	1
0	497	0.235405697138	1
0	501	0.251147000428	1
0	504	0.252673217259	1
0	508	0.257320106792	1
0	511	0.257353214587	1
0	514	0.258067753439	1
0	517	0.258180718435	1
0	519	0.258234220224	1
0	521	0.259696126105	2
0	524	0.259953038047	2
0	527	0.260225375089	2
0	529	0.261025284152	3
0	539	0.267144998086	1
0	543	0.268994757334	1
0	547	0.27068922048	1
0	551	0.272254028896	1
0	555	0.295380540103	1
0	559	0.300809292094	1
0	563	0.308746434881	1
0	567	0.316799647594	1
0	571	0.318409312729	1
0	574	0.319344980302	1
0	578	0.328920618676	1
0	582	0.357621647448	1
0	586	0.362507025405	1
0	590	0.372437421057	1
0	594	0.379729550967	1
0	598	0.384293468888	1
0	601	0.384601798691	1
0	605	0.392614566558	1
0	609	0.410036860126	1
0	613	0.413651465583	1
0	615	0.413730587229	1
0	618	0.414358714936	1
0	624	0.420241386381	1
0	627	0.421067569957	1
0	630	0.421406520191	1
0	632	0.421922206056	1
0	638	0.426508774314	1
0	642	0.436278884656	1
0	645	0.4368096504	1
0	649	0.440991254646	1
0	653	0.469213148063	1
0	657	0.473916534403	1
0	660	0.476511880895	1
0	664	0.48057339671	1
0	667	0.48111300953	1
0	671	0.490199672418	1
0	675	0.508175184517	1
0	679	0.514065832237	1
0	683	0.518481803659	1
0	687	0.537443938042	1
0	689	0.538065840642	1
0	692	0.539965913795	1
0	695	0.545815415717	1
0	699	0.549134192526	1
0	701	0.550237453635	2
0	705	0.552096368004	2
0	707	0.55292275205	3
0	717	0.560285067581	1
0	721	0.560985747383	1
0	724	0.56266141876	1
0	726	0.563650928291	1
0	729	0.56509086533	1
0	735	0.590084489284	1
0	738	0.59115408649	1
0	741	0.59265730914	1
0	745	0.596837162507	1
0	748	0.598025563297	1
0	752	0.605662587575	1
0	754	0.607322262841	1
0	757	0.608367349635	1
0	763	0.609672739461	1
0	767	0.612565310627	1
0	771	0.629393468243	1
0	774	0.630014034477	1
0	778	0.638562911335	1
0	782	0.655325977912	1
0	786	0.688528615735	1
0	788	0.690677611735	1
0	794	0.704097529598	1
0	798	0.729173104263	1
0	802	0.730107873684	1
0	806	0.731991894411	1
0	808	0.732160194015	1
0	814	0.743235632889	1
0	818	0.746021081341	1
0	822	0.747633401973	1
0	826	0.754737873963	1
0	829	0.755182769715	1
0	833	0.758310762688	1
0	837	0.761377750485	1
0	841	0.775405167784	1
0	845	0.791219380554	1
0	847	0.792049873091	1
0	850	0.79223511565	1
0	856	0.80139692031	1
0	860	0.814893527216	1
0	862	0.815371783871	1
0	868	0.818933579283	1
0	871	0.819617214492	1
0	875	0.829571452919	1
0	879	0.838252656069	1
0	883	0.84135893639	1
0	887	0.842512936215	1
0	891	0.843287269639	1
0	895	0.845826746384	1
0	899	0.849514803956	1
0	903	0.851259171628	1
0	907	0.858504365777	1
0	911	0.860689054864	1
0	915	0.866396381153	1
0	919	0.873253762392	1
0	922	0.873812416978	1
0	926	0.882261977014	1
0	930	0.888762356128	1
0	934	0.890272424282	1
0	938	0.893487821669	1
0	942	0.895991555716	1
0	946	0.904871540226	1
0	950	0.907099152878	1
0	954	0.918910281267	1
0	957	0.918958582495	1
0	961	0.926333650192	1
0	965	0.933003331362	1
0	968	0.933195905434	1
0	971	0.933331186635	1
0	975	0.939343946065	1
0	979	0.947398832616	1
0	983	0.949510264228	1
0	987	0.97784359847	1
0	991	0.97991825249	1
0	995	1.006473478887	1
0	999	1.018110559523	1
0	1002	1.018748254649	1
0	1006	1.023099219206	1
0	1010	1.027847953228	1
0	1012	1.029009948499	1
0	1015	1.029724921226	1
0	1018	1.031397714977	1
0	1024	1.035257283907	1
0	1028	1.038672887797	1
0	1031	1.038763652309	1
0	1035	1.064602272219	1
0	1038	1.065157703089	1
0	1041	1.065616722225	1
0	1044	1.066799547998	1
0	1047	1.066994727584	1
0	1051	1.068411253199	1
0	1055	1.068813795746	1
0	1059	1.086089449069	1
0	1063	1.112160936952	1
0	1066	1.112578551211	1
0	1070	1.115091675002	1
0	1074	1.122577116082	1
0	1078	1.123015085151	1
0	1081	1.12544274653	1
0	1084	1.125772488651	1
0	1088	1.133177687376	1
0	1092	1.13504235845	1
0	1095	1.137107332921	1
0	1099	1.14123570753	1
0	1103	1.144516968786	1
0	1105	1.145062158169	1
0	1109	1.147809695045	1
0	1111	1.148046856289	2
0	1114	1.148828111956	2
0	1117	1.150175483172	2
0	1119	1.150227527617	3
0	1121	1.150620872384	4
0	1126	1.154329576952	3
0	1135	1.15711772096	1
0	1138	1.157598012915	1
0	1142	1.161820691999	1
0	1145	1.162482466346	1
0	1149	1.163678343791	1
0	1153	1.166417557854	1
0	1156	1.166624890102	1
0	1159	1.168506482638	1
0	1162	1.168534877345	1
0	1165	1.168966489193	1
0	1169	1.17299283684	1
0	1173	1.182242980994	1
0	1177	1.184196566949	1
0	1181	1.185971173445	1
0	1185	1.187344918501	1
0	1189	1.188838491861	1
0	1191	1.189565118821	1
0	1197	1.191924915062	1
0	1201	1.193917925123	1
0	1204	1.197435750607	1
0	1208	1.204012210696	1
0	1212	1.210638360466	1
0	1215	1.212687453939	1
0	1219	1.231049726922	1
0	1223	1.239785810839	1
0	1227	1.243014284397	1
0	1231	1.247387657508	1
0	1233	1.247851627978	1
0	1239	1.255542422276	1
0	1242	1.256033397248	1
0	1246	1.263540026358	1
0	1248	1.263894040959	1
0	1250	1.266997059135	2
0	1253	1.268654490105	2
0	1258	1.270948335454	1
0	1261	1.271016722134	1
0	1265	1.271946056377	1
0	1268	1.272536295939	1
0	1272	1.273842368126	1
0	1278	1.282016765562	1
0	1280	1.282102548775	1
0	1283	1.283017046164	1
0	1289	1.289170276086	1
0	1293	1.299763057604	1
0	1297	1.306123974663	1
0	1300	1.308193560138	1
0	1304	1.312599881245	1
0	1306	1.312831205844	1
0	1308	1.313570036408	2
0	1310	1.313584504361	3
0	1316	1.315785710579	2
0	1319	1.316345468508	2
0	1322	1.316406495125	2
0	1327	1.318104284832	1
0	1329	1.318272036989	2
0	1337	1.341629981078	1
0	1340	1.342098463851	1
0	1344	1.343856834209	1
0	1348	1.355708002348	1
0	1351	1.357860661641	1
0	1354	1.35942365453	1
0	1358	1.360165596769	1
0	1361	1.363212241315	1
0	1364	1.364111093669	1
0	1366	1.364363345342	1
0	1368	1.364409088263	2
0	1375	1.369610100534	1
0	1377	1.370280978076	1
0	1383	1.372735861402	1
0	1386	1.372845247231	1
0	1390	1.379630194458	1
0	1393	1.37966474981	1
0	1397	1.392707432221	1
0	1401	1.394060306562	1
0	1404	1.394362291725	1
0	1406	1.395020938308	1
0	1411	1.395395959129	1
0	1415	1.398057698884	1
0	1419	1.401910725494	1
0	1423	1.404321967411	1
0	1426	1.404810561799	1
0	1428	1.406616860092	1
0	1434	1.412281934583	1
0	1437	1.412658030897	1
0	1441	1.41472356016	1
0	1444	1.414797469061	1
0	1448	1.415098212772	1
0	1452	1.417741868073	1
0	1456	1.434737242371	1
0	1460	1.447796766879	1
0	1464	1.455093779834	1
0	1468	1.460470930186	1
0	1472	1.467800501314	1
0	1475	1.469023707357	1
0	1479	1.476568754091	1
0	1483	1.480403335312	1
0	1487	1.483305611521	1
0	1491	1.494669112282	1
0	1495	1.501487952968	1
0	1497	1.501569736928	1
0	1502	1.502905383838	1
0	1506	1.507191747409	1
0	1509	1.507926564006	1
0	1512	1.508717467178	1
0	1516	1.511302509237	1
0	1519	1.515021903875	1
0	1522	1.516528534804	1
0	1526	1.519173758842	1
0	1530	1.52457393052	1
0	1533	1.525903993212	1
0	1537	1.533122556822	1
0	1541	1.541246741067	1
0	1543	1.542696163496	1
0	1549	1.546300564361	1
0	1551	1.547888039328	1
0	1554	1.547995369341	1
0	1557	1.548364633547	1
0	1563	1.552965500918	1
0	1567	1.583223288126	1
0	1569	1.583782258001	1
0	1575	1.586329149869	1
0	1577	1.587182403825	1
0	1582	1.589565736246	1
0	1586	1.590170566853	1
0	1589	1.592148904402	1
0	1593	1.594465930618	1
0	1595	1.59460714366	1
0	1599	1.595959857595	1
0	1605	1.628909756482	1
0	1608	1.633095350745	1
0	1611	1.633383055171	1
0	1615	1.638453122076	1
0	1619	1.651059717366	1
0	1623	1.657831056866	1
0	1627	1.666230109741	1
0	1631	1.668253141133	1
0	1635	1.683761265755	1
0	1639	1.684918859876	1
0	1642	1.686155496454	1
0	1645	1.687452953165	1
0	1649	1.71330407046	1
0	1652	1.713623416059	1
0	1656	1.733096985253	1
0	1660	1.740853049718	1
0	1662	1.741257409255	1
0	1667	1.742817737509	1
0	1669	1.744672447931	1
0	1672	1.744832734474	1
0	1677	1.745980776999	1
0	1681	1.747977475442	1
0	1685	1.749065072156	1
0	1689	1.761104163395	1
0	1693	1.767849410934	1
0	1695	1.769465653742	1
0	1698	1.769837833274	1
0	1704	1.771979006676	1
0	1708	1.779464868893	1
0	1712	1.796203695928	1
0	1714	1.796590784277	1
0	1716	1.7968940789	2
0	1724	1.803827709297	1
0	1728	1.807653614383	1
0	1732	1.816320187882	1
0	1735	1.81802580133	1
0	1739	1.821936990576	1
0	1741	1.822809396616	1
0	1743	1.823735029361	2
0	1749	1.827186036705	1
0	1755	1.842855484933	1
0	1758	1.843631911235	1
0	1761	1.844940216757	1
0	1765	1.851829213123	1
0	1767	1.851836231606	1
0	1773	1.866018877499	1
0	1777	1.866092001776	1
0	1781	1.869133819156	1
0	1784	1.869692672967	1
0	1786	1.870041524724	1
0	1789	1.870776043073	1
0	1794	1.872475531866	1
0	1798	1.877059975232	1
0	1802	1.88581585943	1
0	1806	1.886879009014	1
0	1810	1.91490879529	1
0	1814	1.918235891356	1
0	1818	1.939821186772	1
0	1822	1.941553120059	1
0	1826	1.948840039524	1
0	1829	1.949255678713	1
0	1833	1.961308243129	1
0	1837	1.988235588468	1
0	1841	1.989668977997	1
0	1845	2.012724831618	1
0	1847	2.013918785021	1
0	1849	2.014633145917	2
0	1857	2.033062061969	1
0	1861	2.042823645482	1
0	1865	2.046209178227	1
0	1869	2.050699662632	1
0	1873	2.054107405405	1
0	1877	2.060182822514	1
0	1881	2.063207620426	1
0	1883	2.063299477943	1
0	1886	2.066027222629	1
0	1889	2.066664307006	1
0	1892	2.066851260864	1
0	1894	2.066906329791	2
0	1902	2.077494809434	1
0	1906	2.086070913283	1
0	1910	2.099024693608	1
0	1913	2.099739214497	1
0	1917	2.102791321756	1
0	1921	2.108614636024	1
0	1925	2.118583661036	1
0	1927	2.119325750323	1
0	1933	2.12560515128	1
0	1937	2.127567562115	1
0	1941	2.130382504853	1
0	1944	2.133037045533	1
0	1948	2.135009822596	1
0	1952	2.139535292906	1
0	1955	2.13994432453	1
0	1959	2.146329525108	1
0	1962	2.146705656386	1
0	1966	2.164801702705	1
0	1970	2.17183139352	1
0	1974	2.201808712938	1
0	1977	2.201963622759	1
0	1981	2.205086216203	1
0	1983	2.205400762511	1
0	1989	2.213266875073	1
0	1993	2.220613067788	1
0	1995	2.221038698994	1
0	2001	2.226605801664	1
0	2004	2.228544703943	1
0	2007	2.229206152229	1
0	2010	2.229453903508	1
0	2014	2.236299684132	1
0	2018	2.244371367981	1
0	2022	2.254398769023	1
0	2026	2.265791224313	1
0	2029	2.266925100145	1
0	2031	2.268665439552	1
0	2037	2.277060618651	1
0	2041	2.284431343997	1
0	2043	2.28457431775	1
0	2048	2.286234713501	1
0	2052	2.291621368563	1
0	2055	2.29312013424	1
0	2058	2.293765887877	1
0	2062	2.300070695089	1
0	2066	2.312140168554	1
0	2070	2.316840984678	1
0	2073	2.317329830652	1
0	2077	2.323606735517	1
0	2081	2.335480634467	1
0	2084	2.336109734026	1
0	2086	2.336240747011	1
0	2090	2.337034766132	1
0	2093	2.339065481984	1
0	2099	2.355126284273	1
0	2103	2.370161491754	1
0	2107	2.386469927133	1
0	2110	2.386738267092	1
0	2113	2.387157992514	1
0	2117	2.40062439733	1
0	2120	2.401840958382	1
0	2124	2.405838566966	1
0	2127	2.41104675602	1
0	2129	2.411449046449	1
0	2132	2.414634966924	1
0	2138	2.420257953216	1
0	2141	2.420989748148	1
0	2143	2.42255016481	1
0	2147	2.422921486762	1
0	2150	2.423094248875	1
0	2156	2.432445273563	1
0	2160	2.43611027751	1
0	2163	2.436252900484	1
0	2167	2.450137768366	1
0	2171	2.450688357732	1
0	2173	2.451032654757	1
0	2178	2.454929545922	1
0	2182	2.46239354005	1
0	2185	2.462443341351	1
0	2188	2.464145842784	1
0	2192	2.478088530281	1
0	2196	2.485125893123	1
0	2200	2.48836383645	1
0	2204	2.494154155116	1
0	2208	2.503212816222	1
0	2212	2.511780694872	1
0	2216	2.519994720011	1
0	2219	2.520387269697	1
0	2223	2.526604390326	1
0	2227	2.53039934203	1
0	2230	2.531565716451	1
0	2234	2.551024335304	1
0	2237	2.551352444122	1
0	2240	2.551750849056	1
0	2244	2.560937144171	1
0	2248	2.562180450839	1
0	2250	2.562453385525	1
0	2256	2.56586769979	1
0	2259	2.567444996131	1
0	2262	2.568054855787	1
0	2265	2.568801462241	1
0	2269	2.596260897456	1
0	2273	2.600399247305	1
0	2275	2.603880641668	1
0	2278	2.605687225328	1
0	2284	2.60907961206	1
0	2288	2.61700668804	1
0	2292	2.618857176144	1
0	2296	2.629399157588	1
0	2300	2.630942672424	1
0	2304	2.633981831203	1
0	2307	2.636246822307	1
0	2311	2.646904369169	1
0	2314	2.647272629727	1
0	2318	2.650473088124	1
0	2322	2.672910849922	1
0	2324	2.673644548014	1
0	2327	2.675761281108	1
0	2333	2.686255239901	1
0	2337	2.689585179293	1
0	2341	2.701047023431	1
0	2344	2.703731590878	1
0	2348	2.705331872843	1
0	2351	2.706082577221	1
0	2355	2.733569243728	1
0	2359	2.752091783355	1
0	2363	2.790614863779	1
0	2366	2.791261925262	1
0	2370	2.800974591309	1
0	2374	2.801859705751	1
0	2377	2.802037579849	1
0	2379	2.804089661305	1
0	2385	2.80769504083	1
0	2387	2.808028211351	1
0	2393	2.821974440438	1
0	2396	2.822574499567	1
0	2400	2.823024909664	1
0	2404	2.824195441929	1
0	2406	2.825676341385	1
0	2411	2.828324105098	1
0	2414	2.830618747717	1
0	2418	2.86258370346	1
0	2421	2.862793066906	1
0	2424	2.864284041752	1
0	2428	2.865390364831	1
0	2432	2.876983778105	1
0	2435	2.877452279084	1
0	2438	2.878277611085	1
0	2442	2.882795505697	1
0	2446	2.889150330098	1
0	2450	2.898924449417	1
0	2454	2.900993820092	1
0	2458	2.906600748398	1
0	2462	2.908201846685	1
0	2466	2.91077919148	1
0	2470	2.912438414346	1
0	2474	2.912995269965	1
0	2477	2.915172654226	1
0	2481	2.918224232059	1
0	2483	2.920191901171	1
0	2489	2.922303510755	1
0	2492	2.922417592668	1
0	2496	2.925937945459	1
0	2499	2.926055641835	1
0	2503	2.929593618922	1
0	2507	2.947638753453	1
0	2511	2.951757602535	1
0	2513	2.952593956913	1
0	2519	2.954888477149	1
0	2522	2.957916166871	1
0	2526	2.97116391795	1
0	2530	2.977271656779	1
0	2533	2.979028151733	1
0	2536	2.981192096914	1
0	2539	2.98122026603	1
0	2543	2.987347886643	1
0	2545	2.988775040285	1
0	2551	3.004216787033	1
0	2555	3.01041594827	1
0	2559	3.021867719663	1
0	2563	3.024014244665	1
0	2567	3.034922153485	1
0	2570	3.035323261344	1
0	2574	3.043916327918	1
0	2578	3.047238468741	1
0	2582	3.054322629136	1
0	2585	3.055662489541	1
0	2589	3.066784718052	1
0	2593	3.074096878882	1
0	2596	3.076226939428	1
0	2600	3.089899969843	1
0	2604	3.091865954362	1
0	2607	3.092475159924	1
0	2611	3.096514111394	1
0	2615	3.098528516798	1
0	2619	3.101354350195	1
0	2621	3.102169940326	1
0	2625	3.106709122172	1
0	2627	3.107196638725	2
0	2629	3.107223110674	3
0	2639	3.113452502952	1
0	2643	3.117933690206	1
0	2646	3.118052851336	1
0	2649	3.118986679603	1
0	2651	3.119208336892	1
0	2657	3.127587043427	1
0	2661	3.130393074018	1
0	2663	3.130618397108	1
0	2666	3.13249274844	1
0	2669	3.13268890302	1
0	2673	3.135151637321	1
0	2679	3.13708340841	1
0	2682	3.1370900255	1
0	2685	3.137910476615	1
0	2689	3.140246200094	1
0	2693	3.144346672466	1
0	2697	3.160485232558	1
0	2700	3.160981486963	1
0	2703	3.160986046421	1
0	2707	3.162920650096	1
0	2710	3.163312360518	1
0	2714	3.171424227614	1
0	2717	3.17157813076	1
0	2719	3.174819275724	1
0	2725	3.188918426769	1
0	2729	3.199910465706	1
0	2732	3.202712370837	1
0	2735	3.204733359811	1
0	2738	3.204810755677	1
0	2742	3.219101233744	1
0	2746	3.227156044022	1
0	2750	3.250033708778	1
0	2753	3.250444009564	1
0	2756	3.25160392396	1
0	2760	3.254423431962	1
0	2764	3.254682448678	1
0	2768	3.28597881208	1
0	2772	3.287679851866	1
0	2776	3.295392143945	1
0	2780	3.30187193496	1
0	2784	3.304149816331	1
0	2788	3.317419579969	1
0	2791	3.318515714039	1
0	2793	3.319812139008	1
0	2799	3.322436970356	1
0	2802	3.323214053594	1
0	2805	3.323958364691	1
0	2809	3.324217511261	1
0	2813	3.329269733492	1
0	2816	3.329740524758	1
0	2820	3.331380100381	1
0	2823	3.333739187855	1
0	2826	3.334252443436	1
0	2830	3.339691640688	1
0	2834	3.341191943473	1
0	2836	3.341657300228	1
0	2839	3.341675789766	1
0	2844	3.343154885133	1
0	2848	3.354951756607	1
0	2851	3.355567051456	1
0	2855	3.365180535081	1
0	2859	3.372884355571	1
0	2863	3.38914632524	1
0	2867	3.396177348414	1
0	2871	3.40760946176	1
0	2875	3.417960540869	1
0	2879	3.42074472853	1
0	2883	3.42578053914	1
0	2885	3.425992626296	1
0	2889	3.427462243838	1
0	2892	3.427997357517	1
0	2897	3.432540361828	1
0	2900	3.432599491687	1
0	2902	3.432799344911	1
0	2908	3.453569264846	1
0	2912	3.458955649152	1
0	2916	3.462563141455	1
0	2920	3.474889878973	1
0	2924	3.47597493021	1
0	2927	3.476513181322	1
0	2931	3.48353504289	1
0	2935	3.492736673606	1
0	2939	3.494343878774	1
0	2943	3.501514771584	1
0	2946	3.502558938383	1
0	2950	3.505435467285	1
0	2954	3.518781972083	1
0	2958	3.526928377276	1
0	2962	3.532813274585	1
0	2966	3.541458553303	1
0	2970	3.560084278818	1
0	2974	3.565800573136	1
0	2977	3.566025157073	1
0	2980	3.566927543509	1
0	2982	3.56776036256	1
0	2988	3.585568330086	1
0	2991	3.588215197436	1
0	2995	3.594527126909	1
0	2997	3.5961288755	1
0	3003	3.609837659768	1
0	3005	3.610391494581	1
0	3009	3.61053787126	1
0	3013	3.613428285183	1
0	3015	3.614638094625	2
0	3023	3.628240974718	1
0	3026	3.62878749575	1
0	3029	3.629162779154	1
0	3033	3.63903301358	1
0	3037	3.641277428347	1
0	3040	3.641956900517	1
0	3044	3.643093930969	1
0	3048	3.657251880432	1
0	3051	3.657516923685	1
0	3055	3.666598599033	1
0	3059	3.667050884235	1
0	3063	3.673467212986	1
0	3065	3.675815410163	1
0	3068	3.67679070676	1
0	3074	3.681897484579	1
0	3078	3.701558860767	1
0	3082	3.707386610425	1
0	3086	3.71533823004	1
0	3090	3.735867534419	1
0	3094	3.737330282065	1
0	3097	3.740166795327	1
0	3100	3.741015814673	1
0	3103	3.741721043151	1
0	3106	3.741846902382	1
0	3110	3.743191950729	1
0	3114	3.751803576739	1
0	3118	3.759678708354	1
0	3120	3.759869215487	1
0	3126	3.775398540265	1
0	3128	3.775913098787	1
0	3131	3.779170728696	1
0	3137	3.784761827307	1
0	3141	3.785619246878	1
0	3145	3.788914806567	1
0	3149	3.800775758677	1
0	3153	3.804325969544	1
0	3156	3.804812535273	1
0	3159	3.804902541428	1
0	3162	3.80716574059	1
0	3165	3.80756287952	1
0	3168	3.807933466942	1
0	3171	3.810280342921	1
0	3175	3.815338460914	1
0	3179	3.824909216303	1
0	3183	3.837172005739	1
0	3187	3.844502393713	1
0	3191	3.852616603127	1
0	3195	3.870391541253	1
0	3198	3.870819045053	1
0	3202	3.884049151479	1
0	3206	3.888269277327	1
0	3210	3.900807743424	1
0	3214	3.912401099896	1
0	3217	3.91271125071	1
0	3221	3.913943836211	1
0	3225	3.9158134638	1
0	3229	3.921388906082	1
0	3233	3.926790329363	1
0	3237	3.942691761533	1
0	3240	3.944732288377	1
0	3244	3.966811006576	1
0	3248	4.008155873579	1
0	3250	4.008485496577	1
0	3256	4.012181966903	1
0	3259	4.012333101559	1
0	3263	4.012990784251	1
0	3266	4.013752779354	1
0	3270	4.014225361197	1
0	3274	4.020988107432	1
0	3278	4.030379195857	1
0	3282	4.035357757836	1
0	3286	4.047486975783	1
0	3288	4.047914660003	1
0	3290	4.048219487405	2
0	3293	4.04969987696	2
0	3296	4.050639516629	2
0	3298	4.051490461201	3
0	3302	4.052231132363	3
0	3312	4.059539013738	1
0	3316	4.068902642079	1
0	3320	4.078380968917	1
0	3322	4.079055508604	1
0	3325	4.082980448668	1
0	3330	4.084457080646	1
0	3332	4.085069818161	1
0	3335	4.085411679709	1
0	3341	4.089674946209	1
0	3345	4.091273147824	1
0	3349	4.109853968526	1
0	3353	4.118806522411	1
0	3357	4.125735300648	1
0	3361	4.128765153264	1
0	3365	4.132779511943	1
0	3367	4.132782928557	1
0	3373	4.136195133148	1
0	3375	4.137033707075	1
0	3377	4.137143168996	2
0	3380	4.137405492525	2
0	3388	4.141819283837	1
0	3391	4.143472582317	1
0	3395	4.149094791116	1
0	3399	4.15025309127	1
0	3403	4.153401596374	1
0	3407	4.160607136996	1
0	3411	4.17025532009	1
0	3414	4.171104108959	1
0	3417	4.171105288112	1
0	3420	4.172959901395	1
0	3423	4.174350634955	1
0	3426	4.175085884758	1
0	3429	4.176555584672	1
0	3433	4.176925274936	1
0	3437	4.204028620027	1
0	3439	4.205912146109	1
0	3444	4.206644846567	1
0	3447	4.207035668746	1
0	3449	4.207934620024	1
0	3454	4.209386854473	1
0	3458	4.233407260538	1
0	3462	4.237135282949	1
0	3464	4.237718650881	1
0	3467	4.239271284896	1
0	3473	4.246271539378	1
0	3477	4.257501738096	1
0	3481	4.271797178186	1
0	3485	4.272621227798	1
0	3488	4.272657915854	1
0	3492	4.274404541002	1
0	3494	4.274737255001	1
0	3498	4.276554679662	1
0	3504	4.27799047496	1
0	3506	4.280508475266	1
0	3512	4.286291932564	1
0	3515	4.288307001433	1
0	3517	4.28908797956	1
0	3523	4.293975558672	1
0	3526	4.294622854562	1
0	3530	4.298104749708	1
0	3534	4.306066905008	1
0	3538	4.322437878851	1
0	3542	4.330488305981	1
0	3545	4.330933385292	1
0	3548	4.332658217476	1
0	3552	4.342720049301	1
0	3555	4.343184914141	1
0	3559	4.346726723302	1
0	3563	4.349038216665	1
0	3565	4.349154931318	1
0	3571	4.354583398937	1
0	3574	4.355890416102	1
0	3577	4.356812484995	1
0	3581	4.362820794338	1
0	3584	4.363611948523	1
0	3587	4.363614126943	1
0	3591	4.367544763951	1
0	3595	4.370446373517	1
0	3599	4.375582573644	1
0	3603	4.376152989624	1
0	3606	4.377583021716	1
0	3608	4.37784700274	1
0	3610	4.378583741886	2
0	3613	4.378630204049	2
0	3616	4.379691574962	2
0	3623	4.388578287355	1
0	3627	4.393613170156	1
0	3630	4.394409202632	1
0	3633	4.395512644006	1
0	3637	4.411085280946	1
0	3641	4.412588776676	1
0	3645	4.413800911134	1
0	3648	4.414244340795	1
0	3652	4.419801190731	1
0	3656	4.423083250258	1
0	3660	4.424390291345	1
0	3663	4.42515411901	1
0	3667	4.427269601423	1
0	3670	4.433113770379	1
0	3674	4.444213347034	1
0	3678	4.445259118595	1
0	3682	4.451668533989	1
0	3686	4.453908026591	1
0	3690	4.463805467798	1
0	3693	4.46395187782	1
0	3697	4.465532052163	1
0	3700	4.467035518497	1
0	3704	4.473843491039	1
0	3707	4.47396669843	1
0	3711	4.481506005184	1
0	3713	4.481600411545	1
0	3717	4.482819546528	1
0	3721	4.488420022776	1
0	3724	4.491362410593	1
0	3727	4.492511890833	1
0	3730	4.494816806603	1
0	3736	4.501184801968	1
0	3740	4.517611507912	1
0	3744	4.528083234026	1
0	3748	4.532282434436	1
0	3751	4.532488139575	1
0	3755	4.544808721219	1
0	3759	4.553763789145	1
0	3763	4.556238477524	1
0	3767	4.56111658483	1
0	3769	4.562070187667	1
0	3775	4.564019271435	1
0	3778	4.565107522611	1
0	3782	4.571650769069	1
0	3785	4.571897768522	1
0	3789	4.586661663999	1
0	3793	4.588772639498	1
0	3796	4.58920535998	1
0	3800	4.602493170652	1
0	3804	4.614527831727	1
0	3807	4.615215816534	1
0	3810	4.615324791252	1
0	3814	4.616815688302	1
0	3816	4.616865325351	1
0	3822	4.641071458922	1
0	3826	4.642481995718	1
0	3829	4.643558814954	1
0	3833	4.650709391356	1
0	3837	4.652841808746	1
0	3841	4.656024373737	1
0	3843	4.657880679157	1
0	3845	4.658252705496	2
0	3850	4.659534531927	1
0	3856	4.663201629715	1
0	3860	4.669695434403	1
0	3863	4.670123737862	1
0	3867	4.671916771898	1
0	3871	4.681837167631	1
0	3875	4.686874356695	1
0	3877	4.68698706796	1
0	3883	4.698085694712	1
0	3885	4.698587050541	1
0	3888	4.699341014006	1
0	3893	4.699763773689	1
0	3895	4.701666970296	1
0	3898	4.70223459529	1
0	3904	4.712146426588	1
0	3906	4.712297704961	1
0	3911	4.71395463849	1
0	3915	4.714688349683	1
0	3919	4.716311777706	1
0	3922	4.716682090161	1
0	3926	4.719718718562	1
0	3930	4.737255456621	1
0	3933	4.73727153449	1
0	3937	4.740048111957	1
0	3941	4.755749872499	1
0	3945	4.75586078105	1
0	3949	4.756423190974	1
0	3953	4.760477295066	1
0	3957	4.765737459196	1
0	3960	4.766453825902	1
0	3964	4.773388720299	1
0	3967	4.77448432705	1
0	3971	4.791159469375	1
0	3974	4.791461661001	1
0	3978	4.798905157341	1
0	3980	4.799661155612	1
0	3984	4.801545772871	1
0	3988	4.802954345283	1
0	3994	4.836826259695	1
0	3997	4.838423087965	1
0	4001	4.84063383932	1
0	4005	4.844789249685	1
0	4009	4.846845675761	1
0	4013	4.849269704683	1
0	4016	4.849506066606	1
0	4020	4.850333232434	1
0	4023	4.850699496742	1
0	4026	4.851782846795	1
0	4029	4.851856054142	1
0	4032	4.852586692925	1
0	4036	4.867429805737	1
0	4040	4.883836677076	1
0	4044	4.885709311116	1
0	4047	4.8859262592	1
0	4050	4.886215710086	1
0	4054	4.889829324401	1
0	4057	4.889911038275	1
0	4061	4.898308704181	1
0	4064	4.899396309112	1
0	4066	4.89959874254	1
0	4068	4.901548516019	2
0	4073	4.903628140965	1
0	4077	4.907629180912	1
0	4081	4.91005431428	1
0	4087	4.912638312658	1
0	4089	4.912929557357	1
0	4094	4.913354991567	1
0	4098	4.920680675465	1
0	4102	4.929825540637	1
0	4106	4.932008027399	1
0	4108	4.934354738458	1
0	4110	4.935665760623	2
0	4112	4.939133809825	3
0	4122	4.948980794129	1
0	4126	4.960898099793	1
0	4130	4.961000672635	1
0	4134	4.972279116054	1
0	4136	4.9723090806	1
0	4142	4.974395529457	1
0	4145	4.975313554529	1
0	4149	4.97670402755	1
0	4153	4.988758026608	1
0	4157	5.001715170131	1
0	4161	5.012965592881	1
0	4164	5.013294425013	1
0	4168	5.01686458766	1
0	4172	5.017828010201	1
0	4176	5.021343165049	1
0	4180	5.022697041254	1
0	4184	5.025856843571	1
0	4187	5.027795328353	1
0	4191	5.067554710038	1
0	4195	5.070374678563	1
0	4198	5.07116645198	1
0	4201	5.072038833109	1
0	4205	5.077882800668	1
0	4209	5.092815776826	1
0	4213	5.093614625645	1
0	4217	5.095957838169	1
0	4221	5.099012748398	1
0	4224	5.099083662033	1
0	4228	5.111068303762	1
0	4232	5.123761851128	1
0	4235	5.124168407437	1
0	4239	5.146288671587	1
0	4243	5.146559010045	1
0	4247	5.157475457578	1
0	4251	5.164653772891	1
0	4255	5.17372830295	1
0	4259	5.178697831848	1
0	4263	5.181725249065	1
0	4266	5.182042235123	1
0	4268	5.183119977818	1
0	4271	5.184490763544	1
0	4277	5.189174898581	1
0	4280	5.189815097411	1
0	4283	5.190773646812	1
0	4287	5.193858942237	1
0	4291	5.194601355388	1
0	4295	5.198375542584	1
0	4299	5.200287546228	1
0	4301	5.200481459756	1
0	4304	5.200726087199	1
0	4310	5.216590065314	1
0	4313	5.216706174416	1
0	4317	5.222835946635	1
0	4321	5.248236815683	1
0	4325	5.255048189753	1
0	4329	5.268914463425	1
0	4331	5.269192403141	1
0	4333	5.270743894103	2
0	4336	5.271283215054	2
0	4338	5.2732059477	3
0	4341	5.273754319454	3
0	4351	5.298613497679	1
0	4354	5.298999049704	1
0	4357	5.300259480298	1
0	4360	5.302665065279	1
0	4364	5.32570532985	1
0	4366	5.326608442882	1
0	4372	5.337356744785	1
0	4375	5.338875810046	1
0	4379	5.354347374461	1
0	4383	5.363616031408	1
0	4387	5.392820259787	1
0	4390	5.394146706741	1
0	4393	5.395820363134	1
0	4396	5.395831078972	1
0	4400	5.41800585308	1
0	4404	5.422615325317	1
0	4407	5.423098137434	1
0	4411	5.432215699089	1
0	4415	5.433962187649	1
0	4417	5.436249400642	1
0	4423	5.437520263681	1
0	4427	5.441462539537	1
0	4431	5.446586961229	1
0	4435	5.455730312535	1
0	4438	5.455857580436	1
0	4442	5.461585726278	1
0	4446	5.464884852322	1
0	4449	5.465701123525	1
0	4453	5.46860199325	1
0	4456	5.46950290303	1
0	4460	5.4778173477	1
0	4462	5.478070757301	1
0	4465	5.478387121541	1
0	4469	5.479273329223	1
0	4475	5.48094291292	1
0	4479	5.483455781604	1
0	4483	5.491376996187	1
0	4487	5.492127060981	1
0	4491	5.504986552438	1
0	4495	5.505668268539	1
0	4498	5.506455512568	1
0	4502	5.510699354971	1
0	4505	5.510923097951	1
0	4507	5.512706362871	1
0	4513	5.519011077185	1
0	4515	5.519793458979	1
0	4521	5.52324379185	1
0	4523	5.523564974528	1
0	4528	5.524537364786	1
0	4532	5.525755500681	1
0	4536	5.527717938627	1
0	4540	5.532655635649	1
0	4542	5.532714042561	1
0	4548	5.543212909092	1
0	4551	5.544522357471	1
0	4554	5.544935739893	1
0	4558	5.547908101259	1
0	4562	5.553544975316	1
0	4566	5.560640626923	1
0	4568	5.561019039169	1
0	4571	5.563723959002	1
0	4573	5.5651176828	2
0	4577	5.567644323392	2
0	4582	5.569407938105	1
0	4586	5.569905000524	1
0	4589	5.572317212806	1
0	4594	5.572929141976	1
0	4597	5.573410792062	1
0	4600	5.574603759604	1
0	4604	5.577524981868	1
0	4608	5.613062733891	1
0	4612	5.621978015999	1
0	4614	5.62229616705	1
0	4620	5.632487461226	1
0	4624	5.633057705488	1
0	4628	5.642315105569	1
0	4631	5.642785119599	1
0	4635	5.656591257288	1
0	4638	5.657316506332	1
0	4642	5.675274005057	1
0	4646	5.679951265694	1
0	4650	5.683889998076	1
0	4653	5.6871948175	1
0	4657	5.689334907148	1
0	4660	5.691297939163	1
0	4664	5.698673885173	1
0	4668	5.702024371985	1
0	4671	5.702332280191	1
0	4673	5.702612526381	1
0	4676	5.702699525067	1
0	4682	5.711568382333	1
0	4686	5.719804178169	1
0	4690	5.725808752788	1
0	4693	5.726451915623	1
0	4696	5.726607695443	1
0	4700	5.72846422516	1
0	4704	5.73965824551	1
0	4708	5.746703012725	1
0	4710	5.747616161813	1
0	4715	5.748435451817	1
0	4718	5.748447236268	1
0	4722	5.772772810179	1
0	4726	5.779580493852	1
0	4730	5.797163885545	1
0	4734	5.812210289233	1
0	4738	5.815404750452	1
0	4742	5.825808527375	1
0	4745	5.825965077333	1
0	4749	5.833876779575	1
0	4753	5.840122375085	1
0	4757	5.849202075243	1
0	4760	5.849269364767	1
0	4762	5.853269747194	1
0	4767	5.854628113628	1
0	4770	5.85522994683	1
0	4773	5.856311735062	1
0	4777	5.857541897463	1
0	4781	5.859187762441	1
0	4783	5.859474144864	1
0	4785	5.860199962481	2
0	4792	5.862418905962	1
0	4796	5.876171161087	1
0	4800	5.876967991151	1
0	4804	5.880568654203	1
0	4808	5.882793700541	1
0	4811	5.884527201044	1
0	4815	5.897372200705	1
0	4817	5.897684804978	1
0	4820	5.8981950282	1
0	4825	5.899456423243	1
0	4828	5.900595342691	1
0	4831	5.901715450227	1
0	4835	5.902416882102	1
0	4837	5.903413884731	1
0	4843	5.908950759909	1
0	4847	5.913143595588	1
0	4851	5.918003638893	1
0	4855	5.923720314668	1
0	4859	5.930584137961	1
0	4863	5.934014133928	1
0	4866	5.934725987268	1
0	4869	5.935475289828	1
0	4872	5.935530100742	1
0	4875	5.936362373874	1
0	4879	5.937796959477	1
0	4881	5.938822295767	1
0	4887	5.943926343024	1
0	4890	5.944880470267	1
0	4894	5.947064813568	1
0	4898	5.983503389114	1
0	4901	5.983621795453	1
0	4905	5.989462377345	1
0	4909	5.999138958177	1
0	4911	5.999291031054	1
0	4914	5.999853462539	1
0	4919	6.001248523654	1
0	4922	6.001313173348	1
0	4924	6.002215494245	1
0	4927	6.00230351038	1
0	4930	6.003481993162	1
0	4936	6.013514756901	1
0	4939	6.015180272519	1
0	4943	6.02295179067	1
0	4946	6.023385438082	1
0	4949	6.024389772979	1
0	4953	6.027593586859	1
0	4957	6.028095451744	1
0	4960	6.028153941197	1
0	4964	6.054593564629	1
0	4968	6.059803327199	1
0	4972	6.07103696397	1
0	4976	6.07482368562	1
0	4978	6.0751025619	1
0	4984	6.084708863284	1
0	4988	6.09105120234	1
0	4992	6.105585234087	1
0	4994	6.105770418496	1
0	4999	6.108632272634	1
0	5002	6.109062680678	1
0	5005	6.109793569552	1
0	5007	6.111804482018	1
0	5010	6.113264593596	1
0	5013	6.114153404116	1
0	5019	6.117780317371	1
0	5023	6.125424950539	1
0	5026	6.125867970834	1
0	5029	6.128900543516	1
0	5032	6.129717946203	1
0	5036	6.137806658969	1
0	5038	6.138376715235	1
0	5041	6.138629736115	1
0	5047	6.140889579504	1
0	5049	6.142363398258	1
0	5055	6.156665940787	1
0	5058	6.157837979954	1
0	5062	6.159726848941	1
0	5066	6.165137569555	1
0	5070	6.169332858929	1
0	5073	6.169868286961	1
0	5077	6.181947964087	1
0	5081	6.190698324405	1
0	5085	6.197614634194	1
0	5089	6.198178500523	1
0	5093	6.213859109979	1
0	5097	6.215656402301	1
0	5100	6.21614183902	1
0	5103	6.216145395861	1
0	5105	6.21703830684	1
0	5109	6.218393133929	1
0	5112	6.218984913921	1
0	5117	6.2208678049	1
0	5121	6.235121937626	1
0	5124	6.237700294616	1
0	5128	6.240107270429	1
0	5131	6.240571888844	1
0	5133	6.240876921843	1
0	5135	6.241015187275	2
0	5138	6.243549020445	2
0	5141	6.245683643139	2
0	5149	6.255355967586	1
0	5153	6.256498094487	1
0	5156	6.256883832717	1
0	5158	6.257168247373	1
0	5164	6.258311431327	1
0	5166	6.258610862057	1
0	5172	6.260704142132	1
0	5176	6.262468464551	1
0	5180	6.275103395054	1
0	5184	6.28574878857	1
0	5186	6.285885551107	1
0	5191	6.286757980215	1
0	5195	6.295295383383	1
0	5199	6.34002323722	1
0	5203	6.358432084269	1
0	5207	6.362128438324	1
0	5211	6.366959270498	1
0	5215	6.370642529104	1
0	5218	6.370650249075	1
0	5221	6.372125066748	1
0	5223	6.372143951003	1
0	5229	6.373149643501	1
0	5233	6.379189316472	1
0	5237	6.38344535785	1
0	5239	6.38442991952	1
0	5245	6.387663308278	1
0	5248	6.388572448571	1
0	5252	6.391331239281	1
0	5256	6.393798478908	1
0	5260	6.404902401694	1
0	5262	6.405022500656	1
0	5268	6.412558746701	1
0	5272	6.419257028106	1
0	5276	6.426783162298	1
0	5279	6.428238102255	1
0	5282	6.429924245399	1
0	5286	6.436283393723	1
0	5290	6.439970336228	1
0	5293	6.440720277262	1
0	5297	6.445526579652	1
0	5301	6.456460862263	1
0	5303	6.457235090487	1
0	5305	6.458011974302	2
0	5308	6.460158333834	2
0	5313	6.465942932297	1
0	5319	6.493855205341	1
0	5323	6.497229427661	1
0	5327	6.499201093705	1
0	5331	6.499654201149	1
0	5334	6.500058284592	1
0	5338	6.500887995879	1
0	5342	6.506991053872	1
0	5346	6.509064390942	1
0	5350	6.514115600737	1
0	5354	6.519802251226	1
0	5358	6.523877025924	1
0	5362	6.525929354663	1
0	5366	6.533185797451	1
0	5370	6.53829433028	1
0	5374	6.539612125455	1
0	5378	6.550736614887	1
0	5381	6.551653893263	1
0	5385	6.562698001933	1
0	5389	6.57560876879	1
0	5391	6.576309400899	1
0	5397	6.584212394852	1
0	5401	6.600407514196	1
0	5405	6.603381753845	1
0	5407	6.604010214648	1
0	5409	6.60510246231	2
0	5411	6.605529704804	3
0	5419	6.607478119763	1
0	5421	6.608890716522	2
0	5429	6.610842836933	1
0	5433	6.613066548731	1
0	5437	6.616282450094	1
0	5441	6.625620615269	1
0	5445	6.634727219282	1
0	5449	6.636808707266	1
0	5453	6.643393741822	1
0	5457	6.661980111636	1
0	5459	6.664075280234	1
0	5465	6.687751499859	1
0	5468	6.688443822717	1
0	5470	6.689828573141	1
0	5472	6.691317764957	2
0	5474	6.691873486914	3
0	5476	6.694083622582	4
0	5483	6.699514619001	2
0	5485	6.700032976071	3
0	5492	6.70443213498	1
0	5496	6.704665620182	1
0	5499	6.704762906485	1
0	5501	6.704765432789	2
0	5504	6.705155082779	2
0	5512	6.716059455614	1
0	5514	6.716347708949	1
0	5520	6.717589467104	1
0	5524	6.721601133533	1
0	5528	6.725236419225	1
0	5531	6.725417102985	1
0	5535	6.728087081023	1
0	5537	6.73103648315	1
0	5540	6.73141056606	1
0	5546	6.746440965133	1
0	5549	6.74944125508	1
0	5553	6.760132870209	1
0	5557	6.773651253461	1
0	5561	6.775348626218	1
0	5565	6.793080008516	1
0	5569	6.801636605645	1
0	5572	6.802017119271	1
0	5576	6.806115237945	1
0	5580	6.814812376433	1
0	5583	6.814875224349	1
0	5587	6.822063340741	1
0	5591	6.832081808059	1
0	5595	6.834898874376	1
0	5599	6.837926383237	1
0	5603	6.842550242339	1
0	5607	6.856252468391	1
0	5611	6.885262737029	1
0	5614	6.88651191727	1
0	5618	6.888621574491	1
0	5622	6.892274019132	1
0	5626	6.893726386672	1
0	5628	6.894162578694	1
0	5630	6.894201319564	2
0	5635	6.894560982376	1
0	5641	6.898933125434	1
0	5645	6.902285782341	1
0	5648	6.904219629911	1
0	5651	6.90575571906	1
0	5655	6.924387173656	1
0	5659	6.931128759497	1
0	5663	6.934822191464	1
0	5667	6.940732714038	1
0	5671	6.944501503496	1
0	5673	6.944690348548	1
0	5679	6.965106903657	1
0	5682	6.965977290526	1
0	5686	6.971920783261	1
0	5690	6.996514570797	1
0	5694	7.013168566176	1
0	5697	7.013882971482	1
0	5701	7.017766857174	1
0	5704	7.018599304284	1
0	5708	7.019221511803	1
0	5712	7.023479758676	1
0	5715	7.023545804306	1
0	5719	7.031908035791	1
0	5723	7.03453966233	1
0	5727	7.037021680512	1
0	5729	7.037059863534	1
0	5734	7.038768307799	1
0	5738	7.044466719008	1
0	5742	7.047832678147	1
0	5746	7.076889922154	1
0	5750	7.081305365981	1
0	5754	7.084018883656	1
0	5758	7.093239116266	1
0	5761	7.094711484589	1
0	5763	7.095477098065	1
0	5766	7.095933013696	1
0	5772	7.104746469506	1
0	5775	7.105895889344	1
0	5779	7.110283350907	1
0	5783	7.111763274052	1
0	5787	7.12160264601	1
0	5791	7.129835779194	1
0	5795	7.163969875948	1
0	5798	7.164111027652	1
0	5801	7.164984932697	1
0	5805	7.171787310404	1
0	5808	7.172770092926	1
0	5812	7.174616225157	1
0	5816	7.176236245232	1
0	5819	7.176519811577	1
0	5823	7.188288060318	1
0	5827	7.199186606228	1
0	5831	7.20176821867	1
0	5835	7.214643396063	1
0	5839	7.216345533649	1
0	5843	7.223442525592	1
0	5847	7.224255806967	1
0	5850	7.225124053046	1
0	5852	7.225509665583	1
0	5858	7.228222872696	1
0	5861	7.229657454792	1
0	5865	7.237044527025	1
0	5869	7.244088864689	1
0	5872	7.244607973289	1
0	5876	7.253742292164	1
0	5880	7.275343236739	1
0	5883	7.275566456421	1
0	5887	7.277447791324	1
0	5891	7.294152080142	1
0	5895	7.294775389646	1
0	5899	7.301925110824	1
0	5903	7.32928204631	1
0	5906	7.330852567899	1
0	5908	7.33187831919	1
0	5911	7.332604440145	1
0	5916	7.333522115005	1
0	5920	7.344192420024	1
0	5924	7.349599816302	1
0	5928	7.351612556894	1
0	5931	7.352164097744	1
0	5935	7.364320317389	1
0	5938	7.366642968824	1
0	5942	7.367793131187	1
0	5944	7.369019117256	1
0	5950	7.384194785133	1
0	5954	7.385140115629	1
0	5958	7.389456168085	1
0	5961	7.390656912227	1
0	5964	7.391481903502	1
0	5967	7.391483708235	1
0	5970	7.392365209928	1
0	5973	7.3924309352	1
0	5975	7.392548907164	1
0	5981	7.39587293065	1
0	5984	7.396869180888	1
0	5988	7.40586345807	1
0	5992	7.425266683767	1
0	5995	7.425307873417	1
0	5998	7.427673962641	1
0	6002	7.440501256934	1
0	6006	7.440690433511	1
0	6008	7.441166843881	1
0	6013	7.442684465038	1
0	6017	7.449913853522	1
0	6021	7.455073349667	1
0	6025	7.464482644833	1
0	6029	7.484333789044	1
0	6032	7.484583696143	1
0	6036	7.495353844313	1
0	6040	7.497180984229	1
0	6044	7.499457772773	1
0	6048	7.501514461321	1
0	6052	7.518604140557	1
0	6056	7.527676668429	1
0	6060	7.531544968804	1
0	6064	7.550924793451	1
0	6068	7.587224279517	1
0	6072	7.628743703005	1
0	6076	7.631943124269	1
0	6080	7.63405863473	1
0	6084	7.64609773976	1
0	6087	7.646563549823	1
0	6091	7.675370513603	1
0	6094	7.675477835362	1
0	6097	7.675495434171	1
0	6101	7.678453515112	1
0	6104	7.67863906631	1
0	6107	7.678720207383	1
0	6111	7.682618111333	1
0	6115	7.692344466265	1
0	6118	7.692900686547	1
0	6122	7.694249664059	1
0	6126	7.702335881976	1
0	6128	7.702752293875	1
0	6133	7.704376790167	1
0	6137	7.706016088842	1
0	6141	7.707122314971	1
0	6144	7.709260549611	1
0	6147	7.710711285175	1
0	6151	7.727690686546	1
0	6155	7.734490647237	1
0	6159	7.751477856652	1
0	6163	7.754004862783	1
0	6165	7.754301521453	1
0	6171	7.769472967055	1
0	6175	7.774995713503	1
0	6178	7.77636138658	1
0	6181	7.779080462439	1
0	6183	7.779163711153	1
0	6186	7.78010932409	1
0	6192	7.784166032623	1
0	6195	7.784598597245	1
0	6197	7.786684296853	1
0	6202	7.790337683059	1
0	6206	7.809742763948	1
0	6209	7.811016918118	1
0	6213	7.822704863505	1
0	6215	7.82306949105	1
0	6219	7.82527698895	1
0	6225	7.831342903096	1
0	6229	7.841954387572	1
0	6233	7.843165677147	1
0	6237	7.881766018504	1
0	6241	7.886714881668	1
0	6243	7.887085725146	1
0	6249	7.908656941838	1
0	6253	7.919766457075	1
0	6257	7.923652641023	1
0	6260	7.923785746781	1
0	6264	7.945159980649	1
0	6268	7.958429535523	1
0	6271	7.959902961172	1
0	6274	7.960102174816	1
0	6278	7.965892197379	1
0	6282	7.967000250452	1
0	6285	7.967092662601	1
0	6288	7.967492953192	1
0	6292	7.976168617477	1
0	6296	7.978359739014	1
0	6298	7.979196128065	1
0	6301	7.980272470929	1
0	6307	7.996638199644	1
0	6311	8.001342464286	1
0	6315	8.02985263723	1
0	6319	8.031873356287	1
0	6323	8.036298542742	1
0	6327	8.043714332116	1
0	6331	8.045959465515	1
0	6333	8.047069025904	1
0	6337	8.049070287157	1
0	6343	8.074052450971	1
0	6347	8.086814892541	1
0	6349	8.087032635045	1
0	6355	8.099629062842	1
0	6359	8.104214839052	1
0	6363	8.122699431327	1
0	6367	8.128028835041	1
0	6371	8.129339639127	1
0	6375	8.13040537719	1
0	6377	8.132503199922	1
0	6380	8.134056089639	1
0	6383	8.134783756871	1
0	6389	8.153206155919	1
0	6392	8.153333549457	1
0	6396	8.15840804267	1
0	6399	8.159191401919	1
0	6402	8.159774377957	1
0	6406	8.162429992414	1
0	6410	8.165829638628	1
0	6412	8.165870969529	1
0	6418	8.171059876376	1
0	6420	8.171601485758	1
0	6423	8.172895328485	1
0	6426	8.173887289084	1
0	6429	8.174151627639	1
0	6432	8.174839399545	1
0	6435	8.174890577764	1
0	6441	8.184666585093	1
0	6445	8.190730040636	1
0	6449	8.194333308326	1
0	6453	8.196795384314	1
0	6456	8.198662325224	1
0	6460	8.203622345576	1
0	6462	8.203798161621	1
0	6465	8.204354823843	1
0	6468	8.204992779522	1
0	6471	8.206303011686	1
0	6473	8.206569216587	2
0	6475	8.206997064269	3
0	6478	8.207062285592	3
0	6481	8.20713545367	3
0	6491	8.211467517873	1
0	6495	8.224904247497	1
0	6499	8.248082259354	1
0	6503	8.253195735303	1
0	6506	8.253799837816	1
0	6510	8.275845349533	1
0	6514	8.276911410082	1
0	6518	8.281806289916	1
0	6521	8.281973774988	1
0	6525	8.29111925636	1
0	6529	8.298487104725	1
0	6532	8.298723229399	1
0	6536	8.300240238052	1
0	6538	8.302387214157	1
0	6544	8.310058431175	1
0	6546	8.31040084286	1
0	6552	8.341691547092	1
0	6556	8.342350104067	1
0	6559	8.342994797781	1
0	6563	8.346222821743	1
0	6567	8.349046487449	1
0	6569	8.349748273373	1
0	6575	8.353010103259	1
0	6577	8.354063079703	1
0	6583	8.362017042583	1
0	6585	8.362357732217	1
0	6590	8.364130784008	1
0	6592	8.364283233708	1
0	6595	8.364736289246	1
0	6598	8.36542371242	1
0	6604	8.375593670101	1
0	6608	8.376752595335	1
0	6610	8.377096128409	1
0	6616	8.383606625869	1
0	6618	8.386253828731	1
0	6621	8.387219208302	1
0	6624	8.387607646184	1
0	6630	8.39032990851	1
0	6634	8.394763676598	1
0	6637	8.395872267626	1
0	6641	8.423153401351	1
0	6645	8.430247527687	1
0	6649	8.431541636371	1
0	6652	8.431810393792	1
0	6654	8.43197118354	1
0	6660	8.448440924931	1
0	6663	8.449835447932	1
0	6667	8.455039274839	1
0	6671	8.466895452946	1
0	6675	8.475069731308	1
0	6679	8.477734188747	1
0	6683	8.480643721969	1
0	6687	8.481577115462	1
0	6690	8.481970974024	1
0	6694	8.483341856482	1
0	6698	8.494793142054	1
0	6702	8.507167891992	1
0	6706	8.511040309814	1
0	6710	8.512399232181	1
0	6712	8.512694092579	1
0	6715	8.512871294549	1
0	6721	8.535856368968	1
0	6725	8.573634653387	1
0	6728	8.574674955621	1
0	6732	8.588124472576	1
0	6736	8.612153037697	1
0	6740	8.638068705309	1
0	6744	8.641780204316	1
0	6748	8.641845755531	1
0	6752	8.651404623585	1
0	6756	8.657080857562	1
0	6760	8.662959930122	1
0	6762	8.663025731172	1
0	6764	8.663559686898	2
0	6766	8.665549858443	3
0	6775	8.670765912144	1
0	6779	8.689746313946	1
0	6782	8.693092534449	1
0	6785	8.693213846655	1
0	6787	8.693296080989	1
0	6791	8.694948513092	1
0	6797	8.70379762911	1
0	6801	8.708265035642	1
0	6805	8.717166409075	1
0	6809	8.719409164011	1
0	6813	8.725822435364	1
0	6817	8.729003864715	1
0	6820	8.72929153284	1
0	6824	8.75669267633	1
0	6827	8.757532323268	1
0	6831	8.76998917931	1
0	6835	8.78095511721	1
0	6838	8.78096523061	1
0	6842	8.782326372928	1
0	6845	8.782342668947	1
0	6849	8.788885439047	1
0	6853	8.79256778814	1
0	6856	8.793872797058	1
0	6860	8.806485486979	1
0	6864	8.81030331482	1
0	6868	8.820053786451	1
0	6871	8.82011547178	1
0	6875	8.838343811508	1
0	6879	8.84273759102	1
0	6883	8.846094383389	1
0	6887	8.854145891063	1
0	6891	8.868192471168	1
0	6895	8.869583006561	1
0	6899	8.878989870486	1
0	6903	8.885453743402	1
0	6906	8.88562349826	1
0	6910	8.894446843077	1
0	6914	8.912665682456	1
0	6916	8.914145560991	1
0	6918	8.914313340462	2
0	6926	8.923219029509	1
0	6930	8.926408000145	1
0	6934	8.927383447158	1
0	6938	8.944228576525	1
0	6941	8.945114518436	1
0	6945	8.949570276272	1
0	6949	8.954818386286	1
0	6951	8.955172193249	1
0	6957	8.955763447619	1
0	6961	8.958084547053	1
0	6965	8.970173410728	1
0	6968	8.971159836398	1
0	6970	8.972709130383	1
0	6976	8.975909185684	1
0	6980	8.984292601523	1
0	6984	8.987539807335	1
0	6988	8.992883683203	1
0	6992	8.995810129961	1
0	6995	8.995952705141	1
0	6998	8.996490250275	1
0	7002	9.002416469931	1
0	7006	9.01166647293	1
0	7009	9.01186653153	1
0	7013	9.026581955537	1
0	7015	9.028570828742	1
0	7020	9.032945065496	1
0	7024	9.038612975347	1
0	7028	9.041287720388	1
0	7032	9.051705479668	1
0	7036	9.063776689143	1
0	7040	9.073110902559	1
0	7044	9.074498741822	1
0	7048	9.074715274022	1
0	7052	9.079453542361	1
0	7056	9.082895508673	1
0	7060	9.092896890614	1
0	7064	9.094109264354	1
0	7068	9.098473147526	1
0	7072	9.115660528576	1
0	7076	9.120142124309	1
0	7080	9.124754307787	1
0	7084	9.153334094881	1
0	7087	9.154105344321	1
0	7091	9.199140282627	1
0	7094	9.199535179085	1
0	7098	9.206556973034	1
0	7102	9.209416350907	1
0	7106	9.243061664198	1
0	7109	9.24313832072	1
0	7113	9.260236923308	1
0	7117	9.289126655302	1
0	7121	9.289849847333	1
0	7125	9.293004326076	1
0	7129	9.305824377815	1
0	7132	9.305866143371	1
0	7136	9.310164204988	1
0	7140	9.313590735375	1
0	7144	9.315410631492	1
0	7148	9.329001560875	1
0	7152	9.331215627739	1
0	7156	9.339488225335	1
0	7160	9.340877178184	1
0	7163	9.342455908506	1
0	7166	9.34363171002	1
0	7170	9.35782305173	1
0	7173	9.35863296469	1
0	7177	9.363497515875	1
0	7181	9.372589349446	1
0	7185	9.386291093333	1
0	7189	9.393389887097	1
0	7192	9.39445908882	1
0	7195	9.394675695812	1
0	7199	9.397801059157	1
0	7203	9.408942671759	1
0	7206	9.40928335419	1
0	7210	9.413047187644	1
0	7214	9.417856504409	1
0	7216	9.420176622983	1
0	7222	9.422758442692	1
0	7224	9.42322587404	1
0	7229	9.423892787243	1
0	7233	9.427069179218	1
0	7237	9.439742944078	1
0	7240	9.440015142493	1
0	7242	9.440847770399	1
0	7248	9.446558933466	1
0	7252	9.455167687746	1
0	7256	9.459617993334	1
0	7260	9.473913199151	1
0	7263	9.474437058404	1
0	7267	9.495521869212	1
0	7271	9.51191161482	1
0	7274	9.514197127356	1
0	7278	9.520564646606	1
0	7282	9.525116201466	1
0	7286	9.531156896294	1
0	7288	9.531290906555	1
0	7292	9.533252876138	1
0	7298	9.535337743134	1
0	7302	9.535617832802	1
0	7304	9.536383991493	1
0	7307	9.536773961329	1
0	7312	9.537986247316	1
0	7316	9.540965461108	1
0	7320	9.542562301055	1
0	7324	9.54906596206	1
0	7328	9.552009405782	1
0	7332	9.565824257811	1
0	7336	9.568868739225	1
0	7338	9.569038607985	1
0	7340	9.569303609925	2
0	7345	9.570561695813	1
0	7350	9.572481041605	1
0	7354	9.574912894011	1
0	7357	9.57498452383	1
0	7361	9.575671516804	1
0	7365	9.577184016077	1
0	7369	9.593413094562	1
0	7372	9.593785465857	1
0	7376	9.606328293587	1
0	7378	9.607931036287	1
0	7381	9.608169074125	1
0	7387	9.619335555471	1
0	7391	9.633459259018	1
0	7393	9.634671772128	1
0	7398	9.635945486588	1
0	7401	9.636049150291	1
0	7405	9.638959559117	1
0	7409	9.65273081188	1
0	7411	9.653171166497	1
0	7417	9.661466185459	1
0	7421	9.674357534231	1
0	7425	9.676399249351	1
0	7428	9.678433767978	1
0	7432	9.686670526468	1
0	7436	9.695893082645	1
0	7438	9.696396822714	1
0	7443	9.699028579776	1
0	7447	9.717400477141	1
0	7450	9.719301126947	1
0	7454	9.734148605073	1
0	7458	9.744928329728	1
0	7462	9.749381542544	1
0	7465	9.749499639863	1
0	7469	9.751030240496	1
0	7473	9.755936005937	1
0	7477	9.760113451026	1
0	7480	9.760567419211	1
0	7484	9.764888929178	1
0	7488	9.797979834501	1
0	7492	9.801159039144	1
0	7495	9.801229296462	1
0	7499	9.809595226998	1
0	7503	9.835234263871	1
0	7507	9.856757829461	1
0	7510	9.857406857589	1
0	7514	9.868728184401	1
0	7517	9.869168315825	1
0	7520	9.869222033702	1
0	7522	9.869686822327	1
0	7525	9.870381826657	1
0	7530	9.874660961062	1
0	7534	9.892269540483	1
0	7538	9.894267969611	1
0	7541	9.895880418373	1
0	7545	9.901325484101	1
0	7549	9.902141005646	1
0	7551	9.902317158534	1
0	7557	9.90583366354	1
0	7561	9.9227378458	1
0	7564	9.923715238863	1
0	7568	9.942510785941	1
0	7572	9.949512430707	1
0	7575	9.952954816258	1
0	7577	9.953314171948	1
0	7583	9.955874826484	1
0	7587	9.960450177943	1
0	7590	9.961305245684	1
0	7594	9.967433303808	1
0	7598	9.975665992853	1
0	7602	9.979755920248	1
0	7605	9.980594895561	1
0	7609	9.984801786579	1
0	7613	9.995065898413	1
0	7618	10.007830425872	1
0	7621	10.007929408196	1
0	7624	10.008200224793	1
0	7627	10.008715406661	1
0	7630	10.010270921992	1
0	7634	10.047254305987	1
0	7638	10.05123589932	1
0	7642	10.063800451315	1
0	7645	10.064993847374	1
0	7649	10.069309635243	1
0	7653	10.079634072144	1
0	7656	10.08017576036	1
0	7660	10.087167310673	1
0	7663	10.087324071667	1
0	7667	10.098066941039	1
0	7671	10.10078356789	1
0	7675	10.10214712655	1
0	7677	10.102307592542	1
0	7680	10.102735853984	1
0	7685	10.105123074314	1
0	7689	10.129925392151	1
0	7693	10.134202350479	1
0	7697	10.137411585965	1
0	7700	10.139494678713	1
0	7704	10.142881774042	1
0	7708	10.15216561871	1
0	7711	10.152588175923	1
0	7715	10.154516423515	1
0	7718	10.154857525571	1
0	7722	10.179503318242	1
0	7726	10.183032274735	1
0	7730	10.184792170784	1
0	7734	10.187534517152	1
0	7738	10.194050498215	1
0	7742	10.195267762902	1
0	7746	10.196627345938	1
0	7750	10.19699240832	1
0	7754	10.210783028307	1
0	7758	10.215729817873	1
0	7761	10.215999336275	1
0	7764	10.217759699943	1
0	7768	10.220715635776	1
0	7772	10.229037168327	1
0	7776	10.232589234847	1
0	7780	10.246758549513	1
0	7784	10.259228631398	1
0	7787	10.259273396721	1
0	7791	10.261611503614	1
0	7793	10.263151199003	1
0	7799	10.265584237152	1
0	7803	10.273846210305	1
0	7807	10.278452147632	1
0	7811	10.288150062549	1
0	7814	10.288520452871	1
0	7818	10.289436531581	1
0	7822	10.297100495413	1
0	7825	10.298623167849	1
0	7829	10.301895777793	1
0	7833	10.313680374299	1
0	7837	10.316303452815	1
0	7841	10.316492958779	1
0	7843	10.316577381923	1
0	7849	10.320213497431	1
0	7853	10.338449733854	1
0	7855	10.338614419517	1
0	7861	10.356814701753	1
0	7864	10.357224296213	1
0	7868	10.360068814851	1
0	7872	10.360546048465	1
0	7874	10.360974204669	1
0	7880	10.375749925436	1
0	7884	10.379723609435	1
0	7887	10.379731825173	1
0	7891	10.401136684594	1
0	7894	10.401764697047	1
0	7898	10.414303460261	1
0	7902	10.419081259119	1
0	7905	10.420339762465	1
0	7907	10.42114120429	1
0	7910	10.421551031288	1
0	7913	10.422336571567	1
0	7918	10.424044027124	1
0	7920	10.424669150386	1
0	7925	10.425526819562	1
0	7927	10.426437182487	1
0	7930	10.426563782693	1
0	7934	10.428570510569	1
0	7939	10.429297892058	1
0	7943	10.433890769476	1
0	7947	10.43425747725	1
0	7950	10.434308853045	1
0	7954	10.436643365495	1
0	7958	10.440121020258	1
0	7962	10.441882731353	1
0	7965	10.442688454728	1
0	7969	10.454397486901	1
0	7973	10.466498855813	1
0	7977	10.469332888389	1
0	7981	10.49452913419	1
0	7985	10.504964037162	1
0	7988	10.504981895911	1
0	7990	10.505601183819	1
0	7993	10.507795500101	1
0	7998	10.508115887502	1
0	8001	10.50814144118	1
0	8005	10.528363022824	1
0	8008	10.528686021956	1
0	8010	10.53272293646	1
0	8016	10.53742663669	1
0	8019	10.537716892543	1
0	8023	10.542337719238	1
0	8025	10.544044409792	1
0	8027	10.544113701226	2
0	8031	10.544856135467	2
0	8039	10.548847620547	1
0	8041	10.54935939166	1
0	8047	10.558380782019	1
0	8051	10.560559233174	1
0	8055	10.562686045856	1
0	8059	10.567273285305	1
0	8063	10.570862683961	1
0	8067	10.577093321891	1
0	8070	10.577817105242	1
0	8072	10.578616125765	1
0	8075	10.582083761343	1
0	8081	10.594438415331	1
0	8084	10.595231405801	1
0	8088	10.614250741784	1
0	8092	10.624067090624	1
0	8096	10.630573106939	1
0	8100	10.656330674243	1
0	8103	10.65655791858	1
0	8107	10.659118218775	1
0	8109	10.660031355101	1
0	8115	10.674313061022	1
0	8117	10.674758329339	1
0	8119	10.676871510645	2
0	8126	10.677933953965	1
0	8129	10.681984266439	1
0	8131	10.683356177573	1
0	8135	10.684786813856	1
0	8140	10.686545005036	1
0	8144	10.691923743138	1
0	8148	10.696750514389	1
0	8152	10.703157245819	1
0	8155	10.703975962019	1
0	8159	10.713851943488	1
0	8163	10.723601223353	1
0	8167	10.725455245538	1
0	8170	10.726766693676	1
0	8173	10.727024883875	1
0	8177	10.729660961869	1
0	8181	10.735528562476	1
0	8183	10.735608011768	1
0	8186	10.740550282909	1
0	8192	10.742182426287	1
0	8196	10.795288379241	1
0	8200	10.804042043647	1
0	8202	10.805406993594	1
0	8208	10.813512470096	1
0	8212	10.815880285397	1
0	8216	10.839684506864	1
0	8220	10.846242887843	1
0	8224	10.849718967416	1
0	8228	10.853503213929	1
0	8232	10.857766002112	1
0	8236	10.859627335405	1
0	8240	10.862946134176	1
0	8244	10.871676639324	1
0	8248	10.880342423668	1
0	8250	10.881067030157	1
0	8253	10.88135690916	1
0	8256	10.883795116876	1
0	8258	10.883920872776	2
0	8261	10.884064659059	2
0	8264	10.884576923195	2
0	8271	10.887965686574	1
0	8274	10.888430606338	1
0	8277	10.890046493864	1
0	8279	10.892234367344	1
0	8285	10.893489239906	1
0	8288	10.893669060164	1
0	8291	10.894136229393	1
0	8293	10.894499497899	1
0	8298	10.895609195016	1
0	8300	10.896279350535	1
0	8303	10.896487405019	1
0	8306	10.897133622297	1
0	8308	10.898165879394	2
0	8315	10.898715406982	1
0	8318	10.899455189434	1
0	8321	10.901149131313	1
0	8325	10.903391109514	1
0	8329	10.912532993969	1
0	8333	10.914044195224	1
0	8337	10.923454379763	1
0	8339	10.923533280989	1
0	8345	10.926607368076	1
0	8348	10.926940104825	1
0	8351	10.927421885963	1
0	8354	10.928233223113	1
0	8356	10.928370300327	1
0	8362	10.94724741938	1
0	8366	10.949534442377	1
0	8370	10.953165688481	1
0	8373	10.955317908733	1
0	8377	10.957033879546	1
0	8379	10.957750587285	1
0	8384	10.958138964766	1
0	8388	10.968650850181	1
0	8392	10.979719128324	1
0	8396	10.987981779189	1
0	8400	10.995977438716	1
0	8404	11.000692957854	1
0	8408	11.007018693249	1
0	8410	11.007463162393	1
0	8416	11.0112806497	1
0	8418	11.011557261538	1
0	8420	11.013072757295	2
0	8423	11.014171812663	2
0	8426	11.014526547915	2
0	8431	11.015061567789	1
0	8434	11.016188699092	1
0	8436	11.016636882725	2
0	8444	11.017145766007	1
0	8448	11.019223462384	1
0	8451	11.020726039289	1
0	8454	11.023045815285	1
0	8457	11.024956241004	1
0	8461	11.025709993536	1
0	8464	11.026448436145	1
0	8467	11.027186195399	1
0	8471	11.030574855389	1
0	8475	11.039017560309	1
0	8479	11.042608773088	1
0	8483	11.054238178719	1
0	8485	11.054931101516	1
0	8488	11.05511308441	1
0	8493	11.056279654044	1
0	8497	11.06936078719	1
0	8501	11.07420033277	1
0	8505	11.078093901613	1
0	8509	11.0842749667	1
0	8513	11.089155087291	1
0	8517	11.103809348287	1
0	8521	11.110221576961	1
0	8525	11.118875206178	1
0	8529	11.120788395703	1
0	8533	11.123976013367	1
0	8537	11.145484320082	1
0	8541	11.156002841605	1
0	8545	11.16623537506	1
0	8547	11.166293945906	1
0	8553	11.167558836774	1
0	8557	11.173933558687	1
0	8560	11.174072295538	1
0	8563	11.175319641039	1
0	8567	11.181842998183	1
0	8571	11.186474610623	1
0	8575	11.195615127951	1
0	8579	11.198642233022	1
0	8581	11.198792662172	1
0	8583	11.199171242234	2
0	8586	11.199680299357	2
0	8588	11.200766427279	3
0	8596	11.202629039723	1
0	8599	11.204115631779	1
0	8601	11.206779288444	2
0	8604	11.20949086361	2
0	8607	11.209511872842	2
0	8614	11.213364429278	1
0	8617	11.21456319259	1
0	8620	11.214804598069	1
0	8624	11.216211731569	1
0	8628	11.226864255845	1
0	8632	11.228427053007	1
0	8636	11.233094149036	1
0	8639	11.233995680157	1
0	8643	11.238824230389	1
0	8647	11.255634637939	1
0	8651	11.2587200313	1
0	8655	11.272716360785	1
0	8659	11.277458521879	1
0	8663	11.314696006003	1
0	8667	11.322177222321	1
0	8670	11.32272018938	1
0	8674	11.331513879223	1
0	8678	11.340324549011	1
0	8682	11.3469640742	1
0	8684	11.348617934767	1
0	8687	11.348629010489	1
0	8689	11.349157892258	2
0	8697	11.355216384874	1
0	8699	11.355426276321	1
0	8705	11.366147121318	1
0	8709	11.406117182082	1
0	8713	11.407801017003	1
0	8715	11.408086909655	1
0	8721	11.418989374379	1
0	8725	11.42203607954	1
0	8729	11.436721166866	1
0	8732	11.436735567761	1
0	8736	11.437896792123	1
0	8738	11.437990008802	1
0	8741	11.439371734371	1
0	8744	11.439627323274	1
0	8749	11.441836520602	1
0	8753	11.458100997218	1
0	8757	11.468194876986	1
0	8761	11.480842562467	1
0	8765	11.488518548091	1
0	8769	11.503672299159	1
0	8773	11.505078400803	1
0	8776	11.506138535898	1
0	8780	11.507089906309	1
0	8784	11.507976240143	1
0	8788	11.516945629571	1
0	8792	11.524615141766	1
0	8796	11.527228935765	1
0	8799	11.530175447346	1
0	8803	11.536338415435	1
0	8807	11.545823208699	1
0	8811	11.547612913073	1
0	8814	11.547871622437	1
0	8818	11.55320319328	1
0	8822	11.571165502254	1
0	8826	11.60316328336	1
0	8830	11.626119283396	1
0	8833	11.626199267817	1
0	8836	11.626401825451	1
0	8840	11.629957198968	1
0	8843	11.630220638452	1
0	8846	11.630542060022	1
0	8850	11.634783424407	1
0	8854	11.639792807625	1
0	8857	11.640351415226	1
0	8860	11.642068424298	1
0	8864	11.643554805117	1
0	8868	11.653633124937	1
0	8872	11.654810739039	1
0	8874	11.65491163773	1
0	8880	11.668119478267	1
0	8884	11.670179919076	1
0	8886	11.6709628622	1
0	8888	11.670980314402	2
0	8896	11.674846178791	1
0	8899	11.676035919999	1
0	8903	11.678751074113	1
0	8907	11.683159923182	1
0	8911	11.694905763007	1
0	8915	11.696529788254	1
0	8919	11.702132771975	1
0	8923	11.706414700791	1
0	8927	11.715981186603	1
0	8929	11.716218325486	1
0	8931	11.717053632814	2
0	8939	11.722374233383	1
0	8942	11.722841744177	1
0	8944	11.724193150221	1
0	8950	11.728898457223	1
0	8954	11.732963552284	1
0	8957	11.733668923025	1
0	8961	11.736874695838	1
0	8965	11.738996716123	1
0	8969	11.744439721768	1
0	8971	11.745212095405	1
0	8977	11.752367214162	1
0	8980	11.753005542705	1
0	8984	11.760121448557	1
0	8988	11.764062231929	1
0	8990	11.764062847149	1
0	8994	11.764964856572	1
0	8999	11.768640849193	1
0	9002	11.769174181303	1
0	9006	11.775034039383	1
0	9010	11.776739241982	1
0	9012	11.777146988902	1
0	9018	11.783409599839	1
0	9020	11.787776948169	1
0	9026	11.795149475737	1
0	9029	11.795817194952	1
0	9033	11.7983677986	1
0	9037	11.802455891887	1
0	9039	11.802565144019	1
0	9045	11.818017216841	1
0	9049	11.846300206736	1
0	9052	11.847345420611	1
0	9056	11.854699784278	1
0	9060	11.862829083551	1
0	9064	11.869075056616	1
0	9068	11.880409345166	1
0	9071	11.880675645459	1
0	9074	11.880723430326	1
0	9078	11.888311679953	1
0	9082	11.897254886699	1
0	9086	11.899787940832	1
0	9089	11.90088268573	1
0	9093	11.904411781102	1
0	9097	11.909864243443	1
0	9101	11.913793696235	1
0	9105	11.916175110978	1
0	9109	11.929903894587	1
0	9113	11.931430255066	1
0	9117	11.940215603839	1
0	9120	11.941418884579	1
0	9122	11.94145418022	1
0	9128	11.94482170131	1
0	9132	11.951710093563	1
0	9134	11.952658149316	1
0	9137	11.953790446801	1
0	9143	11.959601881986	1
0	9147	11.962124639297	1
0	9149	11.96385625686	1
0	9154	11.965498785368	1
0	9157	11.967341697153	1
0	9159	11.969224823983	1
0	9163	11.97226212984	1
0	9167	11.972824175135	1
0	9170	11.973187226283	1
0	9176	11.987560803516	1
0	9178	11.987621946514	1
0	9184	11.99025603662	1
0	9187	11.992760144706	1
0	9191	12.005181716015	1
0	9194	12.005461849575	1
0	9198	12.034868513264	1
0	9201	12.035323306957	1
0	9203	12.035741423333	1
0	9209	12.047090596792	1
0	9213	12.052286289172	1
0	9217	12.057859577684	1
0	9221	12.064599202264	1
0	9224	12.064814522753	1
0	9228	12.068104029271	1
0	9231	12.069184081448	1
0	9235	12.075663716501	1
0	9239	12.080772023743	1
0	9242	12.083469728105	1
0	9246	12.093868429304	1
0	9249	12.095338563777	1
0	9253	12.11990624355	1
0	9257	12.120494982795	1
0	9261	12.125593089888	1
0	9265	12.12904893764	1
0	9269	12.134670583059	1
0	9272	12.135372333514	1
0	9275	12.135461789925	1
0	9279	12.135790789864	1
0	9283	12.153745332414	1
0	9287	12.155790865209	1
0	9291	12.156489168598	1
0	9295	12.161280159206	1
0	9297	12.162022249972	1
0	9303	12.16909538237	1
0	9307	12.170458321116	1
0	9310	12.171117180577	1
0	9314	12.203308830184	1
0	9318	12.215758333273	1
0	9320	12.216421420488	1
0	9326	12.219709988356	1
0	9328	12.219727797672	1
0	9331	12.220677372796	1
0	9334	12.22130995277	1
0	9337	12.222125736384	1
0	9343	12.225912767095	1
0	9345	12.226109955686	1
0	9347	12.226736820393	2
0	9351	12.228509177123	2
0	9356	12.23034126822	1
0	9361	12.231923236073	1
0	9365	12.259548701024	1
0	9369	12.260977473697	1
0	9372	12.261496180217	1
0	9376	12.26726440935	1
0	9380	12.268809277421	1
0	9384	12.282545925639	1
0	9388	12.287018095542	1
0	9392	12.288035966541	1
0	9396	12.294774649752	1
0	9399	12.294795945981	1
0	9403	12.316955532217	1
0	9405	12.317193353149	1
0	9408	12.317355260478	1
0	9414	12.375930609116	1
0	9418	12.382426905591	1
0	9421	12.384411060763	1
0	9425	12.386970890693	1
0	9429	12.387868771786	1
0	9431	12.387901468363	1
0	9437	12.427082392112	1
0	9441	12.44966754416	1
0	9445	12.455355912983	1
0	9448	12.455460289068	1
0	9451	12.456177222804	1
0	9455	12.462561925765	1
0	9459	12.463860054887	1
0	9463	12.470771206304	1
0	9467	12.482528031803	1
0	9471	12.487215903099	1
0	9475	12.489328691137	1
0	9478	12.49035613934	1
0	9482	12.493962529283	1
0	9486	12.498283308385	1
0	9488	12.498810850313	1
0	9491	12.499087991039	1
0	9497	12.505236872152	1
0	9501	12.525245305203	1
0	9505	12.529213686829	1
0	9509	12.534696449589	1
0	9513	12.53944867663	1
0	9517	12.552717007752	1
0	9521	12.553075037247	1
0	9525	12.565750224045	1
0	9528	12.566173304714	1
0	9532	12.568878463518	1
0	9536	12.577847943449	1
0	9540	12.586073340734	1
0	9544	12.593448596819	1
0	9548	12.599400066866	1
0	9552	12.61652825715	1
0	9555	12.617671890496	1
0	9557	12.618259343756	1
0	9560	12.618660428234	1
0	9563	12.618677321018	1
0	9569	12.624894496769	1
0	9573	12.636244186589	1
0	9577	12.646527043059	1
0	9581	12.655514301692	1
0	9584	12.655978646334	1
0	9588	12.674064251944	1
0	9591	12.674612952307	1
0	9595	12.681317538144	1
0	9598	12.681593352221	1
0	9600	12.681699680245	1
0	9606	12.687002999032	1
0	9610	12.690894221047	1
0	9614	12.698083460362	1
0	9618	12.698799107885	1
0	9620	12.699393200047	1
0	9624	12.70412511958	1
0	9627	12.705256455296	1
0	9631	12.707241698003	1
0	9635	12.707686771607	1
0	9638	12.709044088514	1
0	9641	12.709760544893	1
0	9644	12.711643406734	1
0	9649	12.713600454447	1
0	9653	12.723818150953	1
0	9655	12.72442235815	1
0	9661	12.737535393627	1
0	9664	12.737987435711	1
0	9668	12.743160945331	1
0	9672	12.751439102939	1
0	9676	12.765305566712	1
0	9680	12.765426322815	1
0	9684	12.767732834902	1
0	9688	12.776398125506	1
0	9690	12.776568849588	1
0	9696	12.786495781302	1
0	9700	12.789462135707	1
0	9704	12.795576427165	1
0	9708	12.804146144985	1
0	9711	12.80436534665	1
0	9715	12.806755972084	1
0	9718	12.807263079163	1
0	9721	12.808360493929	1
0	9725	12.813184168974	1
0	9729	12.816473534201	1
0	9731	12.816761880309	1
0	9737	12.828750061902	1
0	9741	12.835435544659	1
0	9744	12.835591305427	1
0	9748	12.837575894329	1
0	9751	12.838803043272	1
0	9755	12.844376740431	1
0	9759	12.845586795932	1
0	9763	12.863092171757	1
0	9766	12.865211935683	1
0	9769	12.865281560887	1
0	9773	12.873997109943	1
0	9776	12.877994296885	1
0	9780	12.883561896806	1
0	9783	12.884803449464	1
0	9787	12.886443195121	1
0	9790	12.889211605084	1
0	9794	12.895073593512	1
0	9798	12.898876304433	1
0	9802	12.917653623243	1
0	9806	12.936720319575	1
0	9810	12.946155603455	1
0	9814	12.967460737795	1
0	9818	12.971565323004	1
0	9822	12.981800466856	1
0	9826	12.997940232701	1
0	9830	13.004625083139	1
0	9834	13.011000411217	1
0	9837	13.011179519287	1
0	9841	13.015295332572	1
0	9845	13.036451644559	1
0	9849	13.038556061009	1
0	9853	13.040083175055	1
0	9857	13.045606565219	1
0	9861	13.054991611497	1
0	9865	13.056788215037	1
0	9867	13.056885610957	1
0	9869	13.057842946544	2
0	9876	13.062741175651	1
0	9880	13.066093170277	1
0	9884	13.07378060827	1
0	9888	13.07553775905	1
0	9891	13.07669304261	1
0	9895	13.079815881967	1
0	9898	13.080095342198	1
0	9900	13.082081250539	1
0	9902	13.082196879704	2
0	9905	13.085355100799	2
0	9910	13.085525969061	1
0	9916	13.087432187624	1
0	9920	13.088903340761	1
0	9923	13.089938508207	1
0	9926	13.090727739857	1
0	9929	13.09540101262	1
0	9931	13.095848967656	1
0	9936	13.096959867748	1
0	9940	13.099126820143	1
0	9943	13.099551762256	1
0	9947	13.099930477609	1
0	9951	13.103151511191	1
0	9955	13.114933071419	1
0	9959	13.126073470631	1
0	9963	13.131740868958	1
0	9967	13.160931685328	1
0	9969	13.161243396324	1
0	9975	13.171590837086	1
0	9979	13.190909474928	1
0	9982	13.191100599849	1
0	9984	13.19179802306	1
0	9990	13.201213974761	1
0	9994	13.203133488483	1
0	9997	13.203868351413	1
0	10000	13.2043735105	1
0	10004	13.214432518136	1
0	10008	13.221531349275	1
0	10012	13.226690550851	1
0	10016	13.230928208141	1
0	10018	13.231040705497	1
0	10024	13.266234665936	1
0	10028	13.272067341544	1
0	10031	13.273084511454	1
0	10035	13.278249788163	1
0	10038	13.279802327706	1
0	10042	13.307631579646	1
0	10046	13.313862873238	1
0	10050	13.322776373487	1
0	10054	13.338496881004	1
0	10058	13.342794597095	1
0	10060	13.342875093027	1
0	10066	13.354698244945	1
0	10068	13.355539917133	1
0	10072	13.356454494647	1
0	10077	13.358931156686	1
0	10081	13.361067304709	1
0	10084	13.361073218471	1
0	10088	13.368463242048	1
0	10092	13.371651242683	1
0	10094	13.371654741826	1
0	10099	13.37301438035	1
0	10102	13.373323501365	1
0	10104	13.373371020357	1
0	10110	13.389606437024	1
0	10114	13.414686892573	1
0	10117	13.414977819691	1
0	10121	13.416563564839	1
0	10124	13.418894803378	1
0	10127	13.420249505989	1
0	10129	13.421685953621	1
0	10134	13.422744343562	1
0	10138	13.423891871771	1
0	10141	13.424142155907	1
0	10144	13.425002667372	1
0	10146	13.42509983842	1
0	10151	13.427157032354	1
0	10155	13.429189490794	1
0	10159	13.429733301053	1
0	10163	13.43073555965	1
0	10166	13.432358005945	1
0	10169	13.432605429525	1
0	10173	13.436531840299	1
0	10175	13.436937159784	1
0	10179	13.437326144469	1
0	10181	13.438548136035	2
0	10187	13.440111654521	1
0	10190	13.44109296496	1
0	10196	13.448013973383	1
0	10200	13.453943185616	1
0	10204	13.461702032176	1
0	10208	13.463491367673	1
0	10212	13.467776584283	1
0	10215	13.468817901321	1
0	10218	13.469189960851	1
0	10221	13.470205791786	1
0	10225	13.471684463228	1
0	10228	13.472051783473	1
0	10232	13.474104333729	1
0	10236	13.477826580119	1
0	10240	13.499795940983	1
0	10244	13.509101163876	1
0	10246	13.509103290403	1
0	10251	13.509874131282	1
0	10255	13.511838607338	1
0	10259	13.531029732969	1
0	10262	13.531551331567	1
0	10266	13.536868001517	1
0	10270	13.53819990521	1
0	10273	13.538787674606	1
0	10277	13.543830397342	1
0	10280	13.544175926984	1
0	10284	13.55479022185	1
0	10286	13.55538992	1
0	10289	13.555444433906	1
0	10295	13.558841418206	1
0	10298	13.560341295875	1
0	10302	13.56155033364	1
0	10306	13.562537088703	1
0	10310	13.567102280326	1
0	10314	13.574102324866	1
0	10318	13.578270448294	1
0	10321	13.578824058612	1
0	10325	13.597804188087	1
0	10329	13.606114919084	1
0	10333	13.609279812412	1
0	10336	13.609469935828	1
0	10340	13.614506210243	1
0	10344	13.61773486752	1
0	10348	13.618128347912	1
0	10350	13.618175824057	1
0	10354	13.618361101664	1
0	10360	13.625503553184	1
0	10362	13.625950855823	1
0	10368	13.641632655538	1
0	10370	13.642568864286	1
0	10376	13.646096693507	1
0	10380	13.647469800356	1
0	10384	13.65138500042	1
0	10388	13.65228079868	1
0	10392	13.657264423188	1
0	10395	13.657350811469	1
0	10399	13.658654855095	1
0	10403	13.661612005683	1
0	10407	13.665235206434	1
0	10409	13.666496342373	1
0	10412	13.667486056334	1
0	10417	13.668062670722	1
0	10421	13.674738725688	1
0	10425	13.680040267045	1
0	10429	13.682640259492	1
0	10433	13.684545029838	1
0	10436	13.685702899124	1
0	10440	13.691645443654	1
0	10442	13.691995807456	1
0	10448	13.721383319957	1
0	10451	13.721836566093	1
0	10455	13.728300675837	1
0	10459	13.739283422282	1
0	10463	13.746886223241	1
0	10466	13.747900420633	1
0	10469	13.74795723498	1
0	10473	13.755440045251	1
0	10477	13.761882028573	1
0	10480	13.762241819564	1
0	10484	13.774531187603	1
0	10488	13.780830759197	1
0	10492	13.78706578254	1
0	10494	13.787568803668	1
0	10500	13.790536137204	1
0	10504	13.795788714843	1
0	10508	13.799770300271	1
0	10512	13.803501039376	1
0	10516	13.806642844058	1
0	10520	13.808445410107	1
0	10523	13.808825246085	1
0	10527	13.811030784969	1
0	10531	13.816336966826	1
0	10534	13.816625439443	1
0	10538	13.822500122262	1
0	10541	13.82284916136	1
0	10543	13.823184997263	1
0	10546	13.823331143237	1
0	10549	13.824000273126	1
0	10552	13.824352259737	1
0	10558	13.828963863977	1
0	10562	13.841149619941	1
0	10565	13.842394582982	1
0	10569	13.848735994531	1
0	10572	13.850167575902	1
0	10576	13.856115614958	1
0	10579	13.856798695306	1
0	10581	13.856919665974	1
0	10587	13.859869482094	1
0	10591	13.86265220144	1
0	10594	13.863028754279	1
0	10598	13.866531707309	1
0	10602	13.867007188519	1
0	10604	13.867559879127	1
0	10609	13.86925792789	1
0	10611	13.86930038829	1
0	10615	13.870884277497	1
0	10618	13.871537818405	1
0	10621	13.87175504377	1
0	10624	13.871956074986	1
0	10630	13.875581985277	1
0	10633	13.87603357807	1
0	10637	13.884959180852	1
0	10640	13.88502276622	1
0	10643	13.885853448624	1
0	10646	13.887100948157	1
0	10649	13.887125535375	1
0	10653	13.895787248334	1
0	10657	13.899936555384	1
0	10661	13.904100889875	1
0	10664	13.904230230934	1
0	10668	13.914815346583	1
0	10672	13.923448012127	1
0	10675	13.923611542779	1
0	10679	13.928817220772	1
0	10683	13.930974736345	1
0	10685	13.931863751906	1
0	10691	13.933076219718	1
0	10694	13.934231570036	1
0	10697	13.935275908656	1
0	10701	13.937307525615	1
0	10705	13.940986196117	1
0	10709	13.946738143774	1
0	10712	13.946858420831	1
0	10716	13.951052912536	1
0	10718	13.95151281997	1
0	10724	13.956481349047	1
0	10728	13.961909450724	1
0	10730	13.962053331594	1
0	10734	13.963388269335	1
0	10739	13.965546934717	1
0	10743	13.966177546609	1
0	10745	13.96678643445	1
0	10748	13.966969775539	1
0	10750	13.967671385154	2
0	10758	13.972189220031	1
0	10760	13.973444425135	1
0	10765	13.973981876462	1
0	10768	13.973989897234	1
0	10771	13.975025738474	1
0	10775	13.97526414292	1
0	10778	13.978115590164	1
0	10782	13.988013288057	1
0	10785	13.988080552824	1
0	10789	14.001444281691	1
0	10792	14.001767698003	1
0	10795	14.003564930262	1
0	10798	14.004155377642	1
0	10801	14.005822732128	1
0	10804	14.007211720341	1
0	10807	14.007523235564	1
0	10811	14.013429881402	1
0	10815	14.014735470099	1
0	10819	14.018659519258	1
0	10823	14.028637754006	1
0	10827	14.02900185735	1
0	10829	14.029858974327	1
0	10835	14.033147464779	1
0	10839	14.037123569209	1
0	10843	14.042317706813	1
0	10847	14.057302665891	1
0	10851	14.065519477079	1
0	10853	14.065998649688	1
0	10856	14.069222505537	1
0	10861	14.071800464936	1
0	10863	14.072418955362	1
0	10866	14.072701214288	1
0	10871	14.075937219271	1
0	10875	14.083333782944	1
0	10877	14.083542736349	1
0	10880	14.084101889241	1
0	10883	14.085335052066	1
0	10886	14.08763869678	1
0	10888	14.089016367855	2
0	10892	14.089342258521	2
0	10895	14.089753255638	2
0	10900	14.090932959366	1
0	10903	14.091298644951	1
0	10909	14.109248001175	1
0	10913	14.131167621579	1
0	10917	14.134458513432	1
0	10921	14.14276683075	1
0	10925	14.149159703532	1
0	10929	14.150864493107	1
0	10932	14.151574253953	1
0	10936	14.15583718408	1
0	10939	14.156662436176	1
0	10943	14.166512418961	1
0	10947	14.171343816663	1
0	10951	14.173928060272	1
0	10955	14.179281156028	1
0	10958	14.1818203901	1
0	10962	14.18354216259	1
0	10966	14.187202644758	1
0	10969	14.188309538884	1
0	10973	14.19169742176	1
0	10977	14.193593142193	1
0	10981	14.196564033416	1
0	10985	14.201704552117	1
0	10989	14.211199475556	1
0	10993	14.214937615419	1
0	10996	14.215211372409	1
0	11000	14.221552130038	1
0	11004	14.222904103685	1
0	11007	14.224307276383	1
0	11010	14.224309812567	1
0	11014	14.234765845622	1
0	11018	14.239754577629	1
0	11022	14.243629688438	1
0	11024	14.245043991543	1
0	11028	14.246209887527	1
0	11034	14.258284595519	1
0	11037	14.259545652921	1
0	11040	14.259735310627	1
0	11044	14.263539506204	1
0	11048	14.272077175563	1
0	11050	14.275662911865	1
0	11054	14.277911617917	1
0	11059	14.278274910376	1
0	11062	14.278726278056	1
0	11064	14.279138920391	1
0	11070	14.28737178299	1
0	11074	14.298086289561	1
0	11077	14.299651843258	1
0	11081	14.304643748135	1
0	11084	14.304719692683	1
0	11087	14.306168963652	1
0	11090	14.307312762284	1
0	11093	14.30757304365	1
0	11097	14.311282313272	1
0	11099	14.311296189387	1
0	11105	14.316658053388	1
0	11109	14.321624768951	1
0	11112	14.321708993976	1
0	11115	14.322083290648	1
0	11118	14.322454635753	1
0	11120	14.324113482469	1
0	11123	14.324874319521	1
0	11129	14.328303953297	1
0	11133	14.343214025107	1
0	11136	14.343234148539	1
0	11139	14.344185972123	1
0	11143	14.351558427275	1
0	11147	14.358431611301	1
0	11151	14.359869433501	1
0	11155	14.366438385264	1
0	11159	14.383171981192	1
0	11162	14.383247446575	1
0	11164	14.384050223925	1
0	11168	14.385075008084	1
0	11172	14.387183735576	1
0	11178	14.388724012278	1
0	11182	14.391647877168	1
0	11186	14.401646123341	1
0	11189	14.402801204307	1
0	11191	14.403771538374	1
0	11195	14.406549012422	1
0	11201	14.43948951059	1
0	11205	14.45636967538	1
0	11209	14.458281474229	1
0	11213	14.467329520977	1
0	11217	14.495646953627	1
0	11220	14.497060724461	1
0	11224	14.517469990985	1
0	11228	14.518792970315	1
0	11232	14.525683591722	1
0	11236	14.529598750125	1
0	11240	14.535187971069	1
0	11242	14.535762720589	1
0	11247	14.538007855827	1
0	11251	14.548376683172	1
0	11255	14.576331939453	1
0	11257	14.578056615764	1
0	11260	14.579040552595	1
0	11263	14.579454858568	1
0	11269	14.581812854847	1
0	11273	14.591003891751	1
0	11277	14.605592241561	1
0	11281	14.608741297756	1
0	11285	14.610402791317	1
0	11288	14.610446243461	1
0	11291	14.610476034067	1
0	11294	14.610686841504	1
0	11298	14.62189967748	1
0	11302	14.624595300076	1
0	11306	14.636113149778	1
0	11310	14.636792235916	1
0	11314	14.645723686992	1
0	11318	14.653532533598	1
0	11321	14.655531311029	1
0	11325	14.666133297974	1
0	11328	14.666481631733	1
0	11332	14.670250973335	1
0	11336	14.680279827675	1
0	11340	14.681139401761	1
0	11344	14.684288710863	1
0	11348	14.686615843653	1
0	11352	14.689465224393	1
0	11356	14.695685240367	1
0	11360	14.698515835705	1
0	11364	14.72866089157	1
0	11368	14.736486627422	1
0	11372	14.740643075889	1
0	11376	14.758438933194	1
0	11380	14.77125079617	1
0	11384	14.773542535255	1
0	11387	14.774166487538	1
0	11391	14.780043456139	1
0	11395	14.780229024229	1
0	11399	14.78326617352	1
0	11402	14.78574443149	1
0	11404	14.788488535203	1
0	11407	14.788627950466	1
0	11411	14.789021408946	1
0	11414	14.789957487644	1
0	11420	14.793070802159	1
0	11424	14.812251941767	1
0	11427	14.812486085184	1
0	11431	14.834508539222	1
0	11435	14.838809180185	1
0	11439	14.84214752909	1
0	11443	14.862188987549	1
0	11447	14.864014408061	1
0	11451	14.872634153437	1
0	11454	14.873259446959	1
0	11457	14.873380811089	1
0	11461	14.882932387813	1
0	11463	14.883856225247	1
0	11469	14.886996612384	1
0	11472	14.888194064932	1
0	11476	14.897245130097	1
0	11480	14.91062008942	1
0	11483	14.911374104627	1
0	11487	14.930736555351	1
0	11489	14.931307251932	1
0	11492	14.931544186334	1
0	11498	14.942947425178	1
0	11502	14.953899839128	1
0	11504	14.953920853924	1
0	11510	14.958365493526	1
0	11512	14.959218170717	1
0	11516	14.963059490897	1
0	11521	14.967049252699	1
0	11525	14.971899079627	1
0	11529	14.972674541734	1
0	11531	14.974210907456	1
0	11534	14.974974634495	1
0	11536	14.975054856979	2
0	11539	14.975089019799	2
0	11542	14.976123004526	2
0	11545	14.979515007017	2
0	11548	14.980786457004	2
0	11551	14.986376974319	2
0	11559	14.993748590944	1
0	11563	15.003799056116	1
0	11567	15.009410802697	1
0	11571	15.030083040863	1
0	11574	15.030217794637	1
0	11578	15.038055223088	1
0	11580	15.038103549739	1
0	11586	15.040174774733	1
0	11589	15.041413751122	1
0	11593	15.051680639789	1
0	11595	15.052391706569	1
0	11600	15.053856898667	1
0	11604	15.0602577517	1
0	11608	15.061028096498	1
0	11612	15.087616280371	1
0	11616	15.105246105545	1
0	11619	15.106116907381	1
0	11623	15.107699619205	1
0	11626	15.107703816641	1
0	11630	15.11874358779	1
0	11633	15.11981039006	1
0	11635	15.119949561107	1
0	11640	15.12188518232	1
0	11643	15.123502399292	1
0	11647	15.134352009243	1
0	11651	15.144794841056	1
0	11655	15.149915982383	1
0	11659	15.15575541582	1
0	11663	15.158694170164	1
0	11667	15.160794384809	1
0	11669	15.163069697775	1
0	11675	15.169625049471	1
0	11679	15.170967234859	1
0	11683	15.172964219892	1
0	11687	15.182484231695	1
0	11690	15.184837587818	1
0	11693	15.185747695987	1
0	11696	15.18843472511	1
0	11700	15.19193047699	1
0	11704	15.195721351579	1
0	11708	15.199752396108	1
0	11710	15.204190983979	1
0	11713	15.204252913269	1
0	11719	15.211657584652	1
0	11723	15.220486975494	1
0	11725	15.220899806326	1
0	11727	15.224117030946	2
0	11735	15.226651730574	1
0	11739	15.229890297943	1
0	11742	15.230486057896	1
0	11744	15.230672651302	1
0	11750	15.232929695919	1
0	11752	15.233144291614	1
0	11758	15.23972924647	1
0	11761	15.240711864473	1
0	11764	15.241622760899	1
0	11767	15.242544543247	1
0	11771	15.246004739623	1
0	11775	15.257793164022	1
0	11779	15.266474778476	1
0	11783	15.273793807115	1
0	11785	15.274138451186	1
0	11791	15.277461538428	1
0	11795	15.285080207876	1
0	11798	15.286449799765	1
0	11801	15.286760144905	1
0	11804	15.288194002515	1
0	11807	15.288955534144	1
0	11811	15.298148701112	1
0	11814	15.299080804968	1
0	11818	15.306834528148	1
0	11821	15.307692262785	1
0	11824	15.308587446568	1
0	11828	15.328190299484	1
0	11830	15.32891908307	1
0	11835	15.3290561742	1
0	11839	15.331284748725	1
0	11843	15.337014506974	1
0	11847	15.353599290901	1
0	11851	15.36711205177	1
0	11855	15.368243260519	1
0	11857	15.369288628347	1
0	11862	15.369987624787	1
0	11866	15.370675926643	1
0	11870	15.372909231617	1
0	11874	15.378651779118	1
0	11878	15.383313815923	1
0	11882	15.400713925933	1
0	11886	15.405165775697	1
0	11890	15.406428311745	1
0	11892	15.407455395295	1
0	11895	15.407605910164	1
0	11899	15.41054763631	1
0	11905	15.416258495431	1
0	11908	15.416531279028	1
0	11911	15.416872337628	1
0	11915	15.421645122868	1
0	11918	15.422409591314	1
0	11920	15.425821441067	1
0	11922	15.426216439408	2
0	11924	15.426252392666	3
0	11933	15.429562174266	1
0	11937	15.43415244754	1
0	11940	15.435284735173	1
0	11944	15.445233017801	1
0	11948	15.450324782486	1
0	11951	15.451004161638	1
0	11955	15.453223057606	1
0	11959	15.457771971034	1
0	11963	15.461273414994	1
0	11966	15.461435128305	1
0	11970	15.462078320502	1
0	11974	15.46327225499	1
0	11978	15.47010168843	1
0	11982	15.470426058378	1
0	11984	15.474648956198	1
0	11987	15.474920269297	1
0	11989	15.476356682416	2
0	11994	15.477168696957	1
0	11996	15.477577622065	2
0	12001	15.481466387713	1
0	12006	15.482833801461	1
0	12010	15.495192978913	1
0	12013	15.496671968221	1
0	12017	15.500271379879	1
0	12021	15.502247892794	1
0	12023	15.50654040273	1
0	12029	15.509473523296	1
0	12033	15.530374848586	1
0	12037	15.535273265278	1
0	12041	15.558213906553	1
0	12045	15.560707583883	1
0	12049	15.593825121789	1
0	12052	15.595145694843	1
0	12056	15.597354355144	1
0	12060	15.612104731457	1
0	12063	15.612216649227	1
0	12067	15.618750581841	1
0	12071	15.624837454797	1
0	12075	15.636310507935	1
0	12077	15.63740405937	1
0	12083	15.665612354264	1
0	12087	15.666717420582	1
0	12090	15.668734240363	1
0	12092	15.669190947501	1
0	12097	15.669823435413	1
0	12100	15.669849457763	1
0	12104	15.678303416594	1
[...]
2	61114	81.335882714936	1
2	61151	81.37837270288	1
2	61160	81.394261714047	1
2	61162	81.394448905434	2
2	61189	81.440548676624	1
2	61208	81.464839715689	1
2	61228	81.484114999558	1
2	61244	81.506336062324	1
2	61248	81.558649495737	1
2	61279	81.6189158017	1
2	61294	81.631045417681	1
2	61309	81.634457829589	1
2	61316	81.641085096351	1
2	61338	81.665757283941	2
2	61348	81.677824054128	2
2	61362	81.681093715651	2
2	61389	81.719147002795	1
2	61416	81.744537595036	2
2	61427	81.770590034008	2
2	61445	81.79803174547	3
2	61492	81.867235771818	2
2	61504	81.91570648212	2
2	61516	81.93965220231	3
2	61523	81.945101898748	4
2	61530	81.959902948968	5
2	61544	81.977116500893	4
2	61550	81.995491774084	4
2	61552	81.995731292645	5
2	61574	82.010872325081	4
2	61597	82.068146115028	3
2	61619	82.122821234591	1
2	61623	82.124414155142	2
2	61707	82.242430555573	1
2	61711	82.268928085423	1
2	61726	82.29741756399	1
2	61734	82.309486792318	2
2	61740	82.340072677041	3
2	61768	82.385294241237	1
2	61772	82.386910629353	1
2	61776	82.392740429411	2
2	61792	82.397337947997	2
2	61794	82.39807854436	3
2	61814	82.434349244647	2
2	61835	82.461330341461	1
2	61859	82.488645699607	1
2	61863	82.502837685647	1
2	61867	82.50604180095	2
2	61905	82.563684507144	1
2	61909	82.566965273251	2
2	61913	82.56827350029	3
2	61955	82.606457098671	3
2	61963	82.616122395402	4
2	61984	82.65207645821	4
2	61991	82.663353364779	5
2	62007	82.68794563612	6
2	62021	82.712855517269	7
2	62029	82.716640036483	8
2	62055	82.75156832835	9
2	62065	82.763895737335	10
2	62091	82.797214881751	9
2	62095	82.806815611082	10
2	62117	82.827322811466	8
2	62127	82.834626133124	9
2	62137	82.847628471411	10
2	62157	82.85198519261	10
2	62183	82.878610841275	8
2	62208	82.928461409585	9
2	62224	82.944977989161	9
2	62243	82.976420924615	9
2	62257	82.992141088361	10
2	62303	83.085420853047	9
2	62320	83.104756831174	9
2	62328	83.126583859085	9
2	62332	83.136367003279	10
2	62370	83.195503647823	10
2	62388	83.21043984409	11
2	62392	83.214106728212	12
2	62415	83.2662291913	10
2	62441	83.311496021914	8
2	62447	83.320605106184	9
2	62452	83.324190540858	10
2	62456	83.338405092614	11
2	62464	83.360111975303	12
2	62472	83.376175159857	12
2	62494	83.397103264775	10
2	62521	83.421413182664	9
2	62541	83.44016839037	8
2	62549	83.450126962981	9
2	62557	83.460240609914	10
2	62571	83.476416227746	10
2	62575	83.476858547157	11
2	62579	83.488636254908	12
2	62611	83.544160798845	11
2	62630	83.563247663932	11
2	62677	83.639974102677	11
2	62685	83.641609521348	12
2	62693	83.664035708815	13
2	62725	83.689169856032	14
2	62761	83.742078046724	14
2	62777	83.76343404904	14
2	62787	83.77542322828	14
2	62791	83.779900394401	15
2	62837	83.830425245038	12
2	62844	83.832317876582	13
2	62855	83.843141380128	14
2	62888	83.907742592884	11
2	62896	83.909934700917	12
2	62900	83.913837247111	13
2	62937	83.979017097242	12
2	62959	84.014520151653	13
2	63013	84.05689797914	10
2	63017	84.08336389342	10
2	63023	84.085672289731	11
2	63060	84.133242150817	6
2	63096	84.164124905347	4
2	63162	84.181852011664	2
2	63183	84.216748758323	3
2	63197	84.230339589518	3
2	63239	84.262055513555	3
2	63251	84.288028440478	2
2	63272	84.314366450676	3
2	63280	84.318004692472	4
2	63304	84.33961798541	4
2	63306	84.340194115162	5
2	63339	84.371013688251	3
2	63366	84.392782794038	2
2	63399	84.412046759018	2
2	63417	84.417757996012	2
2	63436	84.425909725054	3
2	63458	84.43479266084	4
2	63464	84.441821808671	5
2	63509	84.491201090695	1
2	63520	84.499224312256	1
2	63533	84.513002533318	1
2	63537	84.527604877156	1
2	63548	84.542476814594	2
2	63564	84.600696727124	1
2	63576	84.64224451507	1
2	63583	84.667372382159	2
2	63590	84.675123261712	3
2	63605	84.686074988929	1
2	63613	84.689511042651	1
2	63622	84.69171602395	2
2	63638	84.70034687183	3
2	63660	84.754024005817	4
2	63671	84.765787156581	4
2	63686	84.790444577743	3
2	63748	84.879835278094	1
2	63750	84.87986625383	2
2	63761	84.883000640649	2
2	63772	84.89375184154	2
2	63779	84.900875339099	3
2	63827	84.965209149288	1
2	63839	84.98763340781	1
2	63873	85.011485356773	1
2	63884	85.040533958761	1
2	63891	85.042861257191	1
2	63895	85.055139274598	2
2	63920	85.084809875015	1
2	63926	85.088469311649	1
2	63930	85.092448947802	2
2	63945	85.114892225105	3
2	63966	85.129253124694	4
2	63989	85.150562988429	4
2	63998	85.154128352726	5
2	64030	85.181582906497	3
2	64048	85.209004693752	1
2	64077	85.25111242908	2
2	64147	85.384815626627	1
2	64184	85.47297768983	1
2	64186	85.474703890742	1
2	64259	85.586649816837	1
2	64284	85.609318923249	1
2	64301	85.614558640948	1
2	64303	85.614928469126	1
2	64313	85.621539786248	1
2	64324	85.655347124291	2
2	64345	85.677738625843	3
2	64418	85.762269106304	1
2	64434	85.769948918703	1
2	64449	85.782137708515	2
2	64453	85.801894295914	3
2	64483	85.847804459354	2
2	64527	85.885398869778	1
2	64550	85.92939931612	1
2	64558	85.934515433165	1
2	64562	85.936494791129	1
2	64569	85.947795602151	2
2	64595	85.960482587905	1
2	64642	86.026836740203	1
2	64664	86.081705125046	1
2	64675	86.090822788117	1
2	64701	86.111166840565	1
2	64711	86.117040766654	1
2	64717	86.132135913736	1
2	64739	86.165364590277	1
2	64743	86.173153526463	1
2	64797	86.232390161911	1
2	64828	86.289178613469	1
2	64838	86.319102045916	1
2	64840	86.322945951899	1
2	64852	86.335098557567	2
2	64856	86.33740606459	3
2	64860	86.353233093661	4
2	64868	86.367363315427	5
2	64884	86.390433422367	5
2	64922	86.49734347162	3
2	64933	86.505812593124	4
2	64944	86.522579389491	3
2	64955	86.535641554536	4
2	64981	86.552107706919	5
2	65024	86.624264902044	3
2	65035	86.62761288873	4
2	65047	86.636887723782	3
2	65051	86.639163765063	4
2	65063	86.649793070995	5
2	65113	86.690064381164	2
2	65124	86.712318057933	2
2	65128	86.718458225021	3
2	65136	86.721106703091	2
2	65159	86.733863223357	1
2	65161	86.734404028921	2
2	65174	86.754625193391	3
2	65188	86.79955349543	3
2	65253	86.828088030427	1
2	65285	86.873408823022	1
2	65289	86.877342134834	1
2	65359	86.997847939287	1
2	65397	87.069375629839	1
2	65413	87.079765961998	1
2	65439	87.118321598187	1
2	65446	87.124419904516	1
2	65457	87.133391240263	1
2	65473	87.147918119002	1
2	65492	87.183482560537	1
2	65536	87.259473239875	1
2	65552	87.29785164576	1
2	65582	87.368524394652	1
2	65593	87.414386875125	1
2	65608	87.454761242249	1
2	65629	87.481500560205	1
2	65655	87.524118616116	1
2	65668	87.543417390135	1
2	65677	87.550451046536	2
2	65688	87.578219060705	2
2	65710	87.634487818009	2
2	65717	87.642449131149	2
2	65762	87.719938444549	1
2	65766	87.729963157317	2
2	65778	87.753574231972	1
2	65828	87.809405836177	1
2	65843	87.873208736822	1
2	65877	87.944849714847	1
2	65899	87.955134914052	1
2	65901	87.956010033259	1
2	65912	87.963479879996	1
2	65916	87.964974859879	1
2	65943	87.996370244512	1
2	65959	88.049085195186	1
2	65977	88.080158373841	1
2	66003	88.146664479607	1
2	66019	88.16503792063	1
2	66057	88.209270871878	1
2	66096	88.265849051306	1
2	66108	88.271797021296	1
2	66116	88.277613987941	2
2	66122	88.281918398174	2
2	66134	88.285159170904	3
2	66136	88.285214098273	4
2	66147	88.287634363907	3
2	66151	88.292373599546	4
2	66155	88.307793275485	5
2	66181	88.349094574645	3
2	66194	88.365783150923	3
2	66202	88.36726215492	4
2	66225	88.39462083405	5
2	66251	88.427440973851	5
2	66262	88.438079001173	6
2	66270	88.45563641624	6
2	66274	88.46509843538	6
2	66278	88.470355714453	7
2	66297	88.530000053196	7
2	66301	88.538817264024	8
2	66305	88.540203370989	8
2	66321	88.549896129583	8
2	66384	88.614802804396	5
2	66395	88.630894832639	6
2	66399	88.635411265578	6
2	66417	88.651953991197	5
2	66433	88.686854335012	5
2	66437	88.696577459385	6
2	66441	88.704301289774	6
2	66451	88.728119978871	7
2	66453	88.728229586367	8
2	66457	88.729663549369	8
2	66468	88.735695337911	7
2	66472	88.741919213838	8
2	66486	88.751250458455	8
2	66490	88.766590400121	8
2	66498	88.774586241243	8
2	66509	88.796001444102	8
2	66524	88.814645404012	8
2	66528	88.820580543919	8
2	66553	88.831239073271	7
2	66557	88.834530377774	7
2	66561	88.834996863573	8
2	66565	88.836446077417	8
2	66602	88.90330685133	6
2	66628	88.91798938249	6
2	66630	88.918738707073	7
2	66634	88.923156359288	8
2	66649	88.949680158238	8
2	66657	88.953954138187	8
2	66689	88.981442866655	7
2	66732	89.014153816951	5
2	66739	89.021269803601	5
2	66747	89.047036410406	5
2	66751	89.061283751208	6
2	66763	89.079289888396	6
2	66771	89.101445165509	7
2	66779	89.130472935332	7
2	66798	89.139457485473	6
2	66800	89.140789682971	7
2	66832	89.156375224322	7
2	66840	89.171892314338	8
2	66864	89.189091827341	4
2	66896	89.238716749654	3
2	66900	89.24052181573	3
2	66906	89.243563477843	3
2	66913	89.256246000124	3
2	66928	89.280070592958	4
2	66932	89.287499640074	5
2	66942	89.31130927485	6
2	66948	89.314293432754	7
2	66977	89.336139897344	7
2	67007	89.390405089929	8
2	67015	89.392437451469	9
2	67019	89.406497564292	10
2	67064	89.44427310449	8
2	67130	89.478549723145	7
2	67139	89.479946788554	8
2	67146	89.485148938085	9
2	67150	89.49422613866	10
2	67157	89.503787576109	11
2	67172	89.51602142703	10
2	67204	89.550432294088	10
2	67214	89.554131890132	11
2	67225	89.559236652752	12
2	67231	89.586883390365	11
2	67233	89.587150301716	12
2	67287	89.666502895265	10
2	67291	89.67548185114	11
2	67299	89.686967957857	11
2	67303	89.688612468867	12
2	67315	89.697283315578	12
2	67408	89.783542899107	7
2	67410	89.783838351512	8
2	67414	89.785304679228	9
2	67442	89.828728334179	10
2	67446	89.831487793216	11
2	67461	89.85174508781	11
2	67476	89.871642031442	11
2	67493	89.888831154259	11
2	67610	90.018558954211	8
2	67621	90.03298171769	8
2	67635	90.054064106955	9
2	67648	90.06485043707	10
2	67658	90.069920227693	11
2	67682	90.082354226874	11
2	67751	90.176213917041	9
2	67774	90.225445545139	9
2	67782	90.231042300548	9
2	67790	90.247038295578	9
2	67797	90.256667423407	10
2	67805	90.270829064133	10
2	67809	90.273419455717	11
2	67856	90.348875422891	10
2	67883	90.367034829385	10
2	67891	90.375581442675	10
2	67949	90.444958228348	11
2	68007	90.519229651914	7
2	68030	90.537322565137	8
2	68057	90.559280433079	7
2	68073	90.595275377309	7
2	68091	90.650038778759	8
2	68110	90.677574409006	9
2	68122	90.696743949054	10
2	68128	90.697572095778	10
2	68134	90.706362554363	11
2	68143	90.726516463665	12
2	68147	90.729116553688	12
2	68153	90.741492311506	13
2	68174	90.764924128631	14
2	68226	90.824080598674	14
2	68244	90.82828518815	14
2	68258	90.859686923976	15
2	68316	90.953731652423	11
2	68332	90.963723774451	11
2	68340	90.978522035581	12
2	68402	91.053557154731	10
2	68423	91.104514921816	10
2	68461	91.148561894582	8
2	68468	91.152920734229	9
2	68490	91.171718098245	9
2	68522	91.200557380268	7
2	68529	91.218392197878	8
2	68537	91.232061667678	8
2	68549	91.257058791406	9
2	68566	91.284313030669	8
2	68568	91.28535208215	9
2	68584	91.307601247409	9
2	68631	91.345949937297	8
2	68683	91.442134300539	7
2	68695	91.453951947792	6
2	68726	91.463716325251	4
2	68755	91.49186283486	5
2	68771	91.549981047308	6
2	68781	91.557956288015	7
2	68803	91.601058682375	8
2	68828	91.6265225764	9
2	68854	91.686750352433	9
2	68879	91.711724682409	10
2	68883	91.713446371586	11
2	68887	91.717291514761	11
2	68891	91.733889512455	11
2	68902	91.739504239966	11
2	68909	91.745149175812	12
2	68917	91.758340495627	12
2	68944	91.797795927126	12
2	68954	91.808152627353	12
2	68979	91.835553720296	12
2	69012	91.85999840829	9
2	69024	91.886313181552	9
2	69078	91.927558418958	8
2	69084	91.930821028138	9
2	69113	91.956663880165	8
2	69122	91.970920243033	9
2	69170	92.004621653002	4
2	69192	92.024851855142	4
2	69266	92.117401086318	4
2	69283	92.132947821801	4
2	69291	92.158940726595	5
2	69299	92.176994521829	5
2	69326	92.191460303803	5
2	69352	92.215576020725	4
2	69378	92.256982234771	3
2	69380	92.257163453947	4
2	69385	92.258394545212	5
2	69389	92.263941863995	5
2	69407	92.275581866047	6
2	69418	92.28453155351	5
2	69433	92.304621867224	5
2	69447	92.320642940633	5
2	69451	92.33304236509	6
2	69461	92.34528228961	6
2	69483	92.389784493996	3
2	69505	92.411775432976	2
2	69532	92.471407904566	1
2	69536	92.476876247448	1
2	69547	92.488559085811	1
2	69562	92.508427501777	1
2	69570	92.516284492757	1
2	69581	92.531893913471	1
2	69588	92.534003581784	1
2	69653	92.685162011221	1
2	69698	92.774753191041	1
2	69718	92.795153514288	1
2	69720	92.796101336419	1
2	69728	92.811654375888	2
2	69748	92.82508509903	2
2	69756	92.829920952048	3
2	69767	92.83587036507	3
2	69822	92.868579005626	2
2	69859	92.890212429479	2
2	69863	92.891010889687	3
2	69865	92.891171071555	4
2	69887	92.925180787886	5
2	69895	92.936078953934	5
2	69917	92.968705643483	6
2	69944	93.023914617519	5
2	69970	93.056231834155	3
2	69985	93.067680606278	3
2	69997	93.083490058919	3
2	70019	93.113396397953	3
2	70026	93.13075887171	3
2	70030	93.133205250916	4
2	70038	93.166426037786	4
2	70050	93.185038892402	5
2	70146	93.340602133324	1
2	70155	93.346891766445	1
2	70182	93.389958841221	1
2	70197	93.397300309823	1
2	70201	93.406093163952	1
2	70209	93.421726321038	1
2	70213	93.42636921203	1
2	70217	93.431818964193	2
2	70259	93.46952525917	1
2	70295	93.554755085591	1
2	70309	93.563712911587	1
2	70331	93.588509307733	1
2	70339	93.602442262804	1
2	70347	93.606525639927	1
2	70358	93.614490259609	2
2	70419	93.675091408209	1
2	70440	93.717695161171	1
2	70474	93.773338512117	1
2	70509	93.839065877527	1
2	70569	93.970830309433	1
2	70649	94.057077867783	1
2	70657	94.074220482297	1
2	70665	94.079695876449	2
2	70683	94.0891028868	1
2	70689	94.123499757946	2
2	70696	94.127873425044	2
2	70708	94.134966729537	1
2	70728	94.147687767424	2
2	70764	94.198759896843	1
2	70778	94.23054474592	1
2	70794	94.240053301065	1
2	70799	94.242164578168	1
2	70813	94.264047450788	1
2	70817	94.269963404687	2
2	70821	94.282845977259	3
2	70903	94.417103488895	1
2	70914	94.424475246864	1
2	70956	94.459317629361	1
2	70995	94.5347960758	1
2	71013	94.548411539493	1
2	71040	94.569498393756	1
2	71049	94.578832028565	1
2	71055	94.583318292922	1
2	71071	94.602285021986	1
2	71075	94.605568486564	2
2	71088	94.617151508442	3
2	71140	94.678675300029	3
2	71144	94.680103879955	3
2	71168	94.699399678451	3
2	71172	94.700240034124	4
2	71180	94.709797783886	5
2	71184	94.711891261344	6
2	71201	94.728056285796	4
2	71243	94.7658601964	1
2	71259	94.828331061135	1
2	71267	94.839369407519	1
2	71277	94.849143626981	1
2	71303	94.890452266119	1
2	71315	94.918808416116	1
2	71323	94.940934327288	2
2	71347	94.98023047261	1
2	71354	94.983595219871	2
2	71417	95.035664336789	1
2	71510	95.186153631214	1
2	71514	95.190604331981	1
2	71518	95.193097889134	1
2	71524	95.198695597007	2
2	71541	95.207606215299	3
2	71543	95.208831649404	4
2	71547	95.215807258566	5
2	71551	95.236781965769	5
2	71558	95.24062165511	6
2	71592	95.289319859363	2
2	71594	95.289831131933	3
2	71614	95.302181517675	1
2	71619	95.303712012312	2
2	71636	95.317733047321	1
2	71638	95.319700878947	2
2	71640	95.320988756475	3
2	71653	95.329186043562	3
2	71668	95.367891783726	4
2	71690	95.392143399457	1
2	71701	95.39844849952	2
2	71708	95.400912917414	3
2	71720	95.427980280756	4
2	71746	95.463752188714	4
2	71750	95.474985886944	5
2	71772	95.487661205223	6
2	71790	95.517572441162	6
2	71801	95.531119555189	5
2	71815	95.548299526929	6
2	71833	95.56556331216	6
2	71852	95.591114361123	4
2	71867	95.62177286357	4
2	71875	95.625239436052	4
2	71882	95.629835678334	4
2	71908	95.653221728682	4
2	71936	95.711081045178	3
2	71940	95.71803308678	4
2	71947	95.720040913674	5
2	71958	95.740631803238	6
2	71997	95.774993293408	4
2	72007	95.797018913143	5
2	72014	95.799935414389	6
2	72077	95.841043562888	5
2	72091	95.853693094089	5
2	72118	95.925930430389	2
2	72122	95.927292034329	2
2	72142	95.987871621481	1
2	72173	96.024964950678	1
2	72191	96.046625279247	1
2	72197	96.049024833777	1
2	72199	96.050382295871	1
2	72203	96.052462896665	2
2	72207	96.055804873678	3
2	72211	96.058337136676	4
2	72226	96.075530263551	5
2	72230	96.082426852814	6
2	72247	96.105453088412	6
2	72294	96.213255230477	1
2	72317	96.255703850822	1
2	72328	96.266591561406	1
2	72351	96.315727054214	1
2	72389	96.365454196268	1
2	72455	96.407020010887	1
2	72459	96.420435846243	1
2	72463	96.425344683744	1
2	72467	96.430747085653	2
2	72478	96.446669836527	1
2	72497	96.468897916536	2
2	72501	96.472402772901	2
2	72539	96.510462993864	1
2	72554	96.532894625158	1
2	72564	96.546595878193	1
2	72585	96.560316726627	2
2	72600	96.581783010503	3
2	72604	96.593387832555	4
2	72611	96.602187264219	4
2	72629	96.608590531936	5
2	72655	96.631482929948	4
2	72663	96.642231228161	3
2	72717	96.710551576899	2
2	72727	96.727526393739	2
2	72731	96.729354865927	2
2	72758	96.764708195005	2
2	72765	96.786479980978	3
2	72776	96.804455219407	3
2	72803	96.851802276064	2
2	72807	96.85956771521	2
2	72854	96.945680016835	1
2	72875	96.970216509011	1
2	72879	96.970988195841	1
2	72881	96.971218677952	1
2	72892	96.977967476076	2
2	72903	97.018083617049	2
2	72934	97.04479626014	1
2	72941	97.05076890041	1
2	72969	97.085010136813	1
2	72980	97.09187113864	1
2	73010	97.141039565778	1
2	73027	97.185888520718	1
2	73031	97.189776899908	1
2	73062	97.24725547328	1
2	73066	97.250772299305	1
2	73083	97.280742717852	2
2	73090	97.284528051005	2
2	73101	97.310274360554	3
2	73127	97.347527013684	1
2	73137	97.353657017446	1
2	73147	97.364318163557	1
2	73162	97.381041724665	1
2	73170	97.398111855479	2
2	73217	97.446883329911	1
2	73242	97.466353437452	1
2	73250	97.47923123779	2
2	73277	97.529989481754	1
2	73282	97.531045871633	1
2	73333	97.621178932019	1
2	73341	97.643667455566	1
2	73394	97.707850246403	1
2	73415	97.742192234613	1
2	73434	97.811605525049	1
2	73443	97.814803245897	1
2	73447	97.81663247143	1
2	73451	97.823207746713	2
2	73458	97.829598098466	3
2	73480	97.851607337464	2
2	73486	97.85540485168	3
2	73488	97.855634061965	4
2	73496	97.891796292477	3
2	73538	97.956057548384	4
2	73540	97.957479216936	5
2	73555	97.992541013518	5
2	73569	97.999580937032	6
2	73580	98.013765658633	6
2	73584	98.020501580265	6
2	73601	98.034636747765	4
2	73618	98.038208825477	5
2	73644	98.070982456801	5
2	73661	98.10061953456	4
2	73663	98.102452901593	5
2	73716	98.167280069736	2
2	73737	98.201545242721	2
2	73749	98.208434121891	1
2	73764	98.219622135847	1
2	73781	98.22695775564	1
2	73792	98.255457233675	1
2	73804	98.264523437821	2
2	73829	98.317796894111	2
2	73841	98.327308981987	3
2	73845	98.33051130533	3
2	73849	98.334935838347	4
2	73876	98.360139428383	4
2	73888	98.371432034962	5
2	73905	98.395452098189	3
2	73933	98.433869915435	3
2	73966	98.473000921165	4
2	73968	98.473467944068	5
2	73975	98.477238859735	6
2	74020	98.504126843894	4
2	74081	98.5705520908	2
2	74092	98.612444448104	3
2	74096	98.615270169205	4
2	74160	98.663942218145	2
2	74176	98.684065128035	3
2	74180	98.690032907474	4
2	74184	98.721370124156	5
2	74207	98.766186257503	4
2	74231	98.821684207004	2
2	74235	98.825228242837	3
2	74251	98.841922151982	3
2	74258	98.854846214305	4
2	74262	98.85923865446	4
2	74266	98.862378154159	4
2	74277	98.873379388235	3
2	74306	98.9102469801	1
2	74325	98.986883583107	1
2	74335	98.993892698175	1
2	74354	99.000891146351	1
2	74370	99.020029435196	1
2	74413	99.081354590081	1
2	74433	99.136389042198	1
2	74476	99.175114868397	1
2	74492	99.229657944752	1
2	74496	99.235502283209	1
2	74500	99.237212738242	1
2	74511	99.268721415085	1
2	74529	99.311818608588	1
2	74565	99.345612412062	2
2	74575	99.359631170757	3
2	74577	99.360115104809	4
2	74584	99.362631666171	5
2	74592	99.390650020126	6
2	74596	99.404167008219	7
2	74603	99.405875857722	8
2	74611	99.420598170887	9
2	74655	99.458402336941	6
2	74659	99.470528690716	7
2	74681	99.489268570098	7
2	74688	99.494846785734	8
2	74713	99.503507305867	6
2	74722	99.506298030156	7
2	74735	99.515131543822	8
2	74781	99.547987999124	7
2	74803	99.580026143561	5
2	74820	99.589563746854	6
2	74838	99.596842035594	7
2	74863	99.633255714045	6
2	74910	99.670789536832	4
2	74944	99.719552912716	1
2	74987	99.813532609851	1
2	75017	99.828455499143	1
2	75064	99.926228613051	1
2	75068	99.927674369815	1
2	75095	99.967639946848	1
3	7616	10	593
3	15109	20	584
3	22807	30	651
3	30459	40	657
3	38148	50	600
3	45484	60	559
3	52613	70	600
3	60159	80	641
3	67576	90	618
3	75117	100	618

