file 79602102 1639737629                                        
version 2
run warm-up-1-20211217-11:40:25-17824
attr configname warm-up
attr datetime 20211217-11:40:25
attr experiment warm-up
attr inifile omnetpp.ini
attr iterationvars ""
attr iterationvarsf ""
attr measurement ""
attr network Network
attr processid 17824
attr repetition 1
attr replication #1
attr resultdir results
attr runnumber 1
attr seedset 1
param **.server.p1 0.2
param **.server.p2 0.7
param **.clients.num_clients 60
param **.processor.service_rate 1000
param **.disk.service_rate 100
param **.webServer.serv_rate_w 50
param **.clients.timeWindow 10s

vector 0 Network.server.processor processor_backlog:vector ETV
attr source processor_backlog_s
vector 1 Network.server.disk disk_backlog:vector ETV
attr source disk_backlog_s
vector 2 Network.webServer wserver_backlog:vector ETV
attr source wserver_backlog_s
vector 3 Network.clients pkt_counter:vector ETV
attr source pkt_counter_s
0	931 900749 1 124377 0 229.01191988048 32768 1 59 35930 131882
1	901680 947767 65 178087 0.00572097135 329.654337503066 32768 1 59 1912578 111737530
0	1849447 946678 124381 248812 229.027188988665 461.76756747343 32768 1 4 33465 35035
1	2796125 979500 178089 356477 329.65564520039 658.393691596123 32768 52 59 1914014 111825222
0	3775625 946521 248817 373357 461.770665875963 689.50895701494 32768 1 5 33603 35559
0	4722146 946605 373361 497836 689.51227378186 916.709237803382 32768 1 5 33490 35192
1	5668751 979454 356481 534622 658.410869027594 984.14621048365 32768 51 59 1914987 111937619
0	6648205 967379 497838 622318 916.711742988756 1145.839627381209 32768 1 5 33494 35138
1	7615584 1010582 534626 713118 984.164201396589 1312.219225856441 32768 52 59 1915017 111939989
0	8626166 979481 622322 746790 1145.882195855725 1373.746991434632 32768 1 4 33591 35495
0	9605647 979383 746794 871290 1373.760523102193 1602.311338170956 32768 1 4 33513 35193
1	10585030 1012154 713125 891326 1312.225917891926 1639.297856846905 32768 48 59 1914130 111839944
0	11597184 979322 871293 996060 1602.311684377698 1834.341944817935 32768 1 4 33467 35043
1	12576506 1024744 891334 1068483 1639.314789196684 1967.237395339093 32768 52 59 1915681 112016659
0	13601250 1011152 996063 1120626 1834.342163630213 2066.164839752463 32768 1 5 33444 35034
2	14612402 966728 77 1238956 0.012238538309 2286.34443580672 32768 1 8 36437 46811
0	15579130 1012113 1120630 1245151 2066.172056931624 2298.373043954872 32768 1 5 33504 35200
1	16591243 1044989 1068487 1245742 1967.244300020732 2299.524141177135 32768 51 59 1915808 112031840
0	17636232 1012112 1245155 1369791 2298.378147467741 2529.81780826573 32768 1 5 33486 35134
1	18648344 1044975 1245750 1424126 2299.532071974321 2629.355152827147 32768 52 59 1914207 111847709
0	19693319 1012067 1369793 1494295 2529.818071982576 2758.904346326932 32768 1 4 33579 35477
1	20705386 1044930 1424139 1601635 2629.373565745445 2959.355267127822 32768 52 59 1915621 112012145
0	21750316 1012207 1494298 1618714 2758.90492848197 2990.501747187385 32768 1 5 33627 35681
0	22762523 1012224 1618718 1743215 2990.51784202904 3216.604710686111 32768 1 5 33565 35419
1	23774747 1044950 1601639 1780201 2959.370249249115 3283.036956951341 32768 52 59 1914565 111888301
0	24819697 1012188 1743219 1867703 3216.605622805977 3443.627107120232 32768 1 4 33523 35231
1	25831885 1044893 1780221 1957435 3283.054958513191 3608.479922255511 32768 50 59 1915219 111965083
0	26876778 1012129 1867707 1992220 3443.63447955101 3672.289737191703 32768 1 5 33524 35276
0	27888907 1012186 1992222 2116703 3672.290256010993 3901.520680862125 32768 1 4 33493 35115
1	28901093 1044972 1957439 2135205 3608.480347472249 3935.174533260335 32768 51 59 1915348 111978798
0	29946065 1012044 2116707 2241146 3901.530758994706 4126.774000396417 32768 1 5 33586 35520
1	30958109 1044913 2135209 2313829 3935.179060011053 4260.790699338637 32768 52 59 1914297 111857471
0	32003022 1012119 2241150 2365649 4126.788086458865 4356.025669278612 32768 1 5 33459 35029
2	33015141 1012158 1238976 2481808 2286.490543316359 4570.31843284312 32768 1 8 36533 47369
0	34027299 1012126 2365651 2490265 4356.028655545027 4585.849759075713 32768 1 7 33661 35873
1	35039425 1044847 2313831 2491676 4260.791192688569 4588.431055681043 32768 49 59 1914174 111845096
0	36084272 1012217 2490269 2614818 4585.859592295726 4814.647126734437 32768 1 5 33452 35046
1	37096489 1045014 2491680 2669460 4588.45705280194 4915.509286060686 32768 50 59 1914645 111900117
0	38141503 1012162 2614821 2739351 4814.648494042224 5043.542546827697 32768 1 5 33447 35061
1	39153665 1044887 2669464 2847956 4915.51918420154 5244.948501126582 32768 51 59 1914873 111923933
0	40198552 1012086 2739355 2863921 5043.555895108268 5274.987960102004 32768 1 5 33492 35236
0	41210638 1012191 2863925 2988562 5275.003638258309 5504.75778428026 32768 1 5 33534 35326
1	42222829 1044983 2847965 3025221 5244.958085672513 5571.314020581828 32768 52 59 1914704 111905226
0	43267812 1012241 2988566 3113122 5504.759709208478 5733.205122074423 32768 1 5 33561 35409
1	44280053 1044941 3025232 3202265 5571.318654179487 5896.936463517823 32768 52 59 1915425 111987123
0	45324994 1012054 3113124 3237743 5733.20572350974 5963.802429612299 32768 1 4 33558 35408
0	46337048 1012157 3237747 3362262 5963.821282376162 6193.625135056335 32768 1 5 33514 35258
1	47349205 1044876 3202269 3380649 5896.99046131651 6228.30909365857 32768 50 59 1914872 111925848
0	48394081 1012100 3362265 3486747 6193.626590171122 6425.314568307751 32768 1 5 33505 35319
1	49406181 1044965 3380653 3558902 6228.316870881081 6555.027369147413 32768 52 59 1914272 111855704
0	50451146 1012147 3486752 3611288 6425.316171140631 6651.472358759299 32768 1 5 33543 35363
2	51463293 1012080 2481890 3718854 4570.487211426462 6849.98620568642 32768 1 8 36599 47585
0	52475373 1012188 3611292 3735821 6651.480041744768 6881.490666391038 32768 1 4 33469 35093
1	53487561 1044972 3558906 3736544 6555.028720630103 6882.848831743334 32768 52 59 1915289 111971897
0	54532533 1012163 3735825 3860329 6881.49488273347 7113.918500697345 32768 1 5 33489 35133
1	55544696 1044942 3736552 3914678 6882.855389405715 7212.717276938113 32768 52 59 1915540 112001108
0	56589638 1012221 3860332 3984695 7113.918676977011 7341.906848081952 32768 1 6 33604 35636
1	57601859 1045013 3914682 4093685 7212.718695249406 7540.137175425588 32768 51 59 1914651 111899405
0	58646872 1012117 3984703 4109092 7341.914415860947 7568.307968711333 32768 1 4 33396 34788
0	59658989 1012261 4109096 4233701 7568.327394448006 7797.708611857726 32768 1 5 33537 35315
1	60671250 1044961 4093689 4270787 7540.137823065093 7866.766728454878 32768 51 59 1914830 111919288
0	61716211 1012303 4233705 4358238 7797.715792463179 8027.414984003124 32768 1 6 33550 35454
1	62728514 1045090 4270799 4448491 7866.796434452935 8194.631682327149 32768 52 59 1914908 111928828
0	63773604 1012174 4358242 4482720 8027.423088540648 8257.406903655842 32768 1 4 33584 35460
0	64785778 1012245 4482723 4607226 8257.410565402771 8485.124794913292 32768 1 6 33521 35307
1	65798023 1044981 4448500 4626372 8194.653009101059 8521.565256536698 32768 52 59 1914713 111906367
0	66843004 1012199 4607229 4731836 8485.125173750348 8715.945057088097 32768 1 5 33649 35731
1	67855203 1044922 4626383 4803920 8521.577385367635 8848.383278046258 32768 52 59 1915050 111944302
0	68900125 1012213 4731840 4856418 8715.974594568316 8944.302968103375 32768 1 4 33602 35478
2	69912338 1012153 3718908 4965246 6850.062531118273 9145.299177843395 32768 1 7 36355 46349
0	70924491 1012255 4856420 4980868 8944.303009119937 9173.832771663824 32768 1 5 33591 35467
1	71936746 1044973 4803927 4981895 8848.389901210616 9175.618413833902 32768 51 59 1914843 111919899
0	72981719 1012144 4980872 5105413 9173.838723113461 9403.959228213769 32768 1 6 33571 35571
1	73993863 1045000 4981899 5159834 9175.633728524491 9504.81953266982 32768 52 59 1914866 111923728
0	75038863 1012191 5105417 5229905 9403.967815332541 9635.50177891125 32768 1 5 33536 35304
1	76051054 1044831 5159836 5338382 9504.824025165575 9834.081839642716 32768 52 59 1914368 111866246
0	77095885 1012068 5229909 5354400 9635.508600371148 9864.663547538611 32768 1 4 33516 35200
0	78107953 593602 5354404 5427398 9864.669522013717 9999.999911197852 19217 1 4 19670 20698
1	78701555 522884 5338390 5427391 9834.101085486719 9999.973445903105 16399 51 59 958312 56014052
2	79224439 377646 4965250 5427297 9145.307152445261 9999.825216505089 12225 1 6 13655 17611
3	79602085 15 5620 5620 10 10 1 293 293 293 85849

