version 2
run warm-up-0-20211217-19:26:58-12596
attr configname warm-up
attr datetime 20211217-19:26:58
attr experiment warm-up
attr inifile omnetpp.ini
attr iterationvars ""
attr iterationvarsf ""
attr measurement ""
attr network Network
attr processid 12596
attr repetition 0
attr replication #0
attr resultdir results
attr runnumber 0
attr seedset 0
param **.server.p1 0.3
param **.server.p2 0.47
param **.clients.num_clients 60
param **.processor.service_rate 1000
param **.disk.service_rate 330
param **.webServer.serv_rate_w 165
param **.clients.timeWindow 5s

vector 0 Network.server.processor processor_backlog:vector ETV
attr source processor_backlog_s
vector 1 Network.server.disk disk_backlog:vector ETV
attr source disk_backlog_s
vector 2 Network.webServer wserver_backlog:vector ETV
attr source wserver_backlog_s
vector 3 Network.clients pkt_counter:vector ETV
attr source pkt_counter_s
0	2871	1	4
0	5670	2	1
0	7950	3	0
0	10602	4	0
0	13362	5	6
0	15940	6	0
0	18659	7	0
0	21118	8	11
0	23778	9	0
0	26342	10	0
0	28820	11	0
0	31315	12	4
0	33901	13	3
0	36478	14	0
0	38936	15	0
0	41589	16	1
0	43997	17	1
0	46698	18	2
0	49397	19	0
0	52004	20	10
0	54702	21	2
0	57379	22	2
0	60201	23	3
0	62990	24	0
0	65667	25	1
0	68453	26	2
0	71200	27	1
0	73673	28	0
0	76228	29	2
0	78828	30	0
0	81312	31	0
0	83900	32	0
0	86796	33	1
0	89559	34	5
0	92084	35	4
0	94425	36	3
0	96912	37	0
0	99607	38	3
0	102144	39	2
0	104711	40	1
0	107596	41	1
0	110021	42	0
0	112653	43	2
0	115396	44	0
0	117867	45	3
0	120491	46	2
0	123163	47	2
0	125684	48	4
0	128214	49	0
0	130693	50	0
0	133277	51	1
0	135869	52	0
0	138586	53	1
0	140976	54	0
0	143760	55	0
0	146338	56	3
0	149041	57	0
0	151695	58	1
0	154115	59	0
0	156292	60	3
0	158678	61	3
0	161378	62	0
0	164113	63	4
0	166726	64	0
0	169378	65	2
0	172235	66	2
0	174710	67	2
0	177318	68	2
0	179794	69	0
0	182440	70	2
0	185111	71	4
0	187576	72	0
0	190088	73	7
0	192631	74	2
0	195179	75	3
0	197763	76	0
0	200600	77	5
0	203147	78	1
0	205739	79	0
0	208064	80	0
0	210757	81	0
0	213679	82	0
0	216269	83	1
0	218743	84	0
0	221211	85	1
0	223844	86	9
0	226603	87	1
0	229088	88	1
0	231618	89	0
0	234169	90	0
0	236780	91	0
0	239093	92	0
0	241610	93	3
0	244503	94	1
0	247060	95	1
0	249817	96	1
0	252642	97	7
0	255323	98	0
0	257849	99	2
0	260547	100	0
0	263021	101	1
0	265667	102	0
0	268369	103	3
0	270807	104	2
0	273459	105	2
0	275953	106	6
0	278203	107	0
0	280851	108	3
0	283054	109	3
0	285622	110	0
0	288298	111	0
0	290854	112	3
0	293451	113	0
0	295975	114	0
0	298498	115	1
0	300902	116	4
0	303584	117	0
0	305982	118	3
0	308635	119	0
0	311113	120	1
0	313562	121	0
0	316110	122	0
0	318848	123	2
0	321566	124	0
0	324246	125	2
0	326811	126	0
0	329581	127	4
0	331989	128	0
0	334483	129	0
0	336893	130	0
0	339598	131	0
0	342299	132	9
0	344910	133	3
0	347337	134	0
0	349875	135	3
0	352471	136	5
0	355136	137	0
0	357869	138	12
0	360516	139	0
0	363108	140	0
0	365454	141	0
0	368165	142	0
0	370783	143	1
0	373391	144	3
0	376069	145	0
0	378605	146	1
0	381119	147	0
0	383530	148	0
0	386145	149	1
0	388700	150	1
0	391497	151	6
0	394079	152	0
0	396921	153	1
0	399595	154	1
0	402281	155	0
0	404861	156	0
0	407457	157	0
0	409980	158	4
0	412624	159	8
0	415272	160	1
0	418004	161	0
0	420518	162	0
0	423041	163	0
0	425655	164	4
0	428272	165	1
0	430787	166	0
0	433276	167	1
0	435944	168	0
0	438089	169	2
0	440698	170	5
0	442945	171	1
0	445367	172	1
0	447397	173	0
0	449904	174	0
0	452521	175	2
0	455090	176	1
0	457863	177	2
0	460669	178	0
0	463287	179	0
0	465856	180	0
0	468336	181	0
0	471042	182	1
0	474013	183	0
0	476460	184	0
0	478996	185	0
0	481615	186	1
0	484213	187	0
0	486844	188	0
0	489586	189	5
0	492361	190	1
0	495060	191	1
0	498068	192	3
0	500577	193	0
0	503120	194	0
0	505758	195	0
0	508293	196	0
0	510888	197	0
0	513429	198	4
0	516115	199	1
0	518745	200	2
0	521097	201	8
0	523690	202	4
0	526335	203	0
0	529032	204	1
0	531718	205	1
0	534436	206	0
0	537057	207	10
0	539620	208	0
0	542157	209	0
0	544673	210	5
0	547135	211	0
0	549751	212	5
0	552032	213	2
0	554686	214	1
0	557124	215	1
0	559789	216	2
0	562459	217	6
0	565102	218	0
0	567632	219	0
0	570108	220	0
0	572458	221	12
0	575174	222	7
0	577697	223	0
0	580049	224	0
0	582642	225	0
0	585038	226	0
0	587705	227	8
0	590170	228	0
0	592485	229	0
0	594857	230	0
0	597101	231	0
0	599502	232	4
0	602104	233	0
0	604522	234	1
0	606929	235	0
0	609370	236	0
0	611886	237	0
0	614728	238	0
0	617211	239	2
0	619835	240	1
0	622235	241	0
0	624754	242	2
0	627168	243	3
0	629585	244	2
0	632235	245	0
0	634785	246	0
0	637262	247	8
0	639851	248	2
0	642514	249	0
0	645377	250	3
0	648005	251	1
0	650559	252	2
0	653248	253	0
0	655994	254	3
0	658538	255	2
0	661113	256	2
0	663690	257	0
0	666225	258	1
0	669054	259	0
0	671464	260	0
0	674131	261	0
0	676767	262	7
0	679173	263	3
0	681470	264	0
0	683751	265	6
0	686159	266	0
0	688865	267	0
0	691604	268	6
0	694031	269	1
0	696481	270	1
0	698934	271	0
0	701414	272	1
0	703940	273	0
0	706748	274	2
0	709566	275	3
0	712161	276	2
0	714705	277	4
0	717392	278	6
0	720188	279	1
0	722802	280	1
0	725522	281	0
0	728169	282	0
0	730885	283	0
0	733631	284	1
0	736173	285	0
0	738711	286	0
0	741386	287	0
0	744065	288	5
0	746482	289	0
0	749013	290	0
0	751294	291	0
0	753742	292	0
0	756228	293	0
0	758810	294	0
0	761567	295	0
0	764307	296	2
0	766677	297	0
0	769538	298	0
0	771517	299	5
0	774100	300	0
0	776750	301	2
0	779483	302	4
0	781991	303	4
0	784655	304	8
0	787507	305	4
0	790150	306	0
0	792822	307	1
0	795376	308	1
0	797911	309	1
0	800545	310	0
0	803247	311	1
0	805491	312	2
0	807981	313	1
0	810573	314	4
0	813346	315	0
0	815898	316	0
0	818353	317	1
0	820883	318	6
0	823593	319	0
0	826083	320	0
0	828748	321	0
0	831333	322	0
0	834155	323	2
0	836856	324	0
0	839690	325	2
0	842317	326	0
0	844417	327	0
0	846586	328	0
0	849322	329	0
0	851976	330	0
0	854690	331	2
0	857520	332	2
0	860308	333	0
0	862895	334	0
0	865605	335	1
0	868237	336	0
0	870896	337	3
0	873492	338	0
0	876092	339	3
0	878843	340	0
0	881419	341	0
0	883924	342	0
0	886479	343	0
0	889055	344	0
0	891814	345	0
0	894445	346	0
0	896956	347	0
0	899642	348	0
0	902032	349	1
0	904456	350	1
0	907014	351	4
0	909548	352	0
0	912106	353	0
0	914595	354	3
0	917243	355	2
0	920082	356	2
0	922525	357	0
0	925105	358	0
0	927728	359	0
0	930221	360	1
0	932914	361	2
0	935464	362	0
0	937948	363	0
0	940440	364	4
0	943249	365	2
0	945886	366	2
0	948300	367	0
0	950569	368	3
0	953118	369	0
0	955830	370	4
0	958641	371	6
0	961271	372	3
0	964017	373	2
0	966520	374	1
0	969247	375	0
0	971912	376	3
0	974571	377	6
0	977084	378	0
0	979618	379	3
0	982644	380	1
0	985238	381	3
0	988150	382	0
0	990758	383	1
0	993362	384	0
0	995952	385	0
0	998622	386	0
0	1001116	387	2
0	1003663	388	8
0	1006140	389	0
0	1008698	390	0
0	1011242	391	5
0	1013759	392	0
0	1016265	393	6
0	1018980	394	1
0	1021625	395	0
0	1024064	396	1
0	1026531	397	0
0	1029088	398	0
0	1031890	399	0
0	1034260	400	0
0	1036805	401	2
0	1039298	402	0
0	1041901	403	1
0	1044511	404	3
0	1047181	405	0
0	1049902	406	6
0	1052377	407	0
0	1054898	408	6
0	1057520	409	5
0	1060201	410	1
0	1062731	411	4
0	1065389	412	0
0	1068047	413	0
0	1070242	414	3
0	1072583	415	0
0	1075111	416	0
0	1077715	417	0
0	1080332	418	1
0	1082913	419	5
0	1085493	420	0
0	1088168	421	0
0	1090792	422	0
0	1093497	423	0
0	1096017	424	1
0	1098652	425	8
0	1101332	426	0
0	1103657	427	0
0	1106150	428	3
0	1108918	429	1
0	1111591	430	4
0	1114425	431	0
0	1117219	432	7
0	1119802	433	3
0	1122053	434	1
0	1124491	435	4
0	1126991	436	0
0	1129276	437	6
0	1131423	438	1
0	1134098	439	3
0	1136577	440	0
0	1139179	441	2
0	1141565	442	0
0	1143999	443	0
0	1146480	444	0
0	1149114	445	0
0	1151812	446	1
0	1154477	447	1
0	1156986	448	0
0	1159413	449	0
0	1162144	450	6
0	1164788	451	5
0	1167542	452	0
0	1169897	453	1
0	1172381	454	2
0	1175052	455	3
0	1177809	456	2
0	1180111	457	0
0	1182905	458	5
0	1185467	459	3
0	1188127	460	5
0	1190769	461	0
0	1193447	462	4
0	1196123	463	0
0	1198465	464	7
0	1201121	465	0
0	1203594	466	0
0	1205799	467	0
0	1208434	468	0
0	1210866	469	2
0	1213601	470	0
0	1216300	471	1
0	1218919	472	7
0	1221430	473	1
0	1224086	474	2
0	1226532	475	0
0	1229176	476	7
0	1232000	477	0
0	1234495	478	3
0	1237183	479	2
0	1239817	480	0
0	1242297	481	0
0	1244703	482	3
0	1247330	483	0
0	1250068	484	0
0	1252767	485	0
0	1255287	486	6
0	1257906	487	0
0	1260419	488	0
0	1262969	489	0
0	1265699	490	4
0	1268348	491	7
0	1271078	492	2
0	1273830	493	0
0	1276301	494	0
0	1278852	495	0
0	1281515	496	1
0	1283803	497	0
0	1286123	498	0
0	1288692	499	0
0	1291342	500	2
0	1293854	501	10
0	1296352	502	2
0	1298745	503	0
0	1301200	504	3
0	1303731	505	0
0	1306352	506	5
0	1308914	507	0
0	1311852	508	0
0	1314605	509	3
0	1317098	510	6
0	1319695	511	0
0	1322339	512	1
0	1324759	513	0
0	1327576	514	2
0	1330172	515	0
0	1332664	516	0
0	1335168	517	0
0	1338077	518	0
0	1340597	519	3
0	1343255	520	1
0	1345987	521	1
0	1348533	522	9
0	1351008	523	1
0	1353477	524	0
0	1356069	525	3
0	1358859	526	1
0	1361375	527	0
0	1363899	528	0
0	1366337	529	2
0	1369098	530	5
0	1371923	531	0
0	1374752	532	0
0	1377189	533	0
0	1379617	534	1
0	1382193	535	1
0	1384681	536	1
0	1387347	537	0
0	1389856	538	1
0	1392586	539	0
0	1394954	540	0
0	1397889	541	1
0	1400642	542	3
0	1403175	543	2
0	1405640	544	0
0	1408493	545	6
0	1411257	546	10
0	1413734	547	0
0	1416261	548	4
0	1419004	549	3
0	1421543	550	0
0	1423975	551	0
0	1426649	552	0
0	1429222	553	0
0	1431825	554	2
0	1434394	555	2
0	1436847	556	3
0	1439457	557	0
0	1442154	558	3
0	1444795	559	0
0	1447306	560	0
0	1449852	561	0
0	1452425	562	0
0	1455148	563	0
0	1457660	564	8
0	1460075	565	0
0	1462606	566	0
0	1464978	567	5
0	1467736	568	8
0	1470682	569	0
0	1473296	570	4
0	1475982	571	0
0	1478627	572	1
0	1481204	573	0
0	1483780	574	0
0	1486485	575	2
0	1489138	576	9
0	1491796	577	0
0	1494123	578	2
0	1496658	579	0
0	1499036	580	0
0	1501537	581	9
0	1504336	582	0
0	1507089	583	0
0	1509668	584	2
0	1512366	585	5
0	1514734	586	7
0	1517099	587	0
0	1519569	588	0
0	1522132	589	0
0	1524786	590	0
0	1527156	591	0
0	1529854	592	0
0	1532301	593	0
0	1534881	594	5
0	1537569	595	0
0	1540042	596	4
0	1542611	597	0
0	1545217	598	2
0	1547744	599	7
0	1550305	600	0
0	1552785	601	0
0	1555451	602	0
0	1558029	603	0
0	1560715	604	1
0	1563270	605	4
0	1565940	606	2
0	1568553	607	0
0	1571000	608	1
0	1573445	609	0
0	1575889	610	0
0	1578738	611	0
0	1581257	612	1
0	1583905	613	0
0	1586406	614	0
0	1588952	615	0
0	1591540	616	8
0	1593902	617	0
0	1596401	618	1
0	1599033	619	0
0	1601423	620	0
0	1603816	621	3
0	1606274	622	1
0	1609253	623	0
0	1611873	624	2
0	1614154	625	2
0	1616686	626	0
0	1619302	627	9
0	1622120	628	0
0	1624745	629	1
0	1627347	630	4
0	1629807	631	1
0	1632141	632	1
0	1634693	633	0
0	1637212	634	1
0	1639642	635	1
0	1642323	636	4
0	1645178	637	0
0	1647822	638	2
0	1650245	639	1
0	1652800	640	8
0	1655712	641	16
0	1658704	642	0
0	1661164	643	0
0	1663743	644	0
0	1666251	645	0
0	1668872	646	0
0	1671213	647	1
0	1674040	648	0
0	1676598	649	0
0	1679027	650	0
0	1681398	651	2
0	1684146	652	4
0	1686746	653	0
0	1689065	654	6
0	1691570	655	0
0	1694214	656	2
0	1696773	657	0
0	1699489	658	0
0	1701871	659	3
0	1704314	660	1
0	1706751	661	0
0	1709221	662	1
0	1711833	663	0
0	1714389	664	2
0	1716995	665	0
0	1719408	666	0
0	1721874	667	0
0	1724540	668	5
0	1727176	669	7
0	1729889	670	2
0	1732319	671	0
0	1734854	672	3
0	1737498	673	2
0	1740193	674	4
0	1742634	675	7
0	1745136	676	0
0	1747694	677	0
0	1750417	678	2
0	1753054	679	0
0	1755575	680	0
0	1758211	681	7
0	1760813	682	13
0	1763133	683	0
0	1765896	684	1
0	1768440	685	0
0	1770785	686	0
0	1773338	687	4
0	1775789	688	2
0	1778433	689	4
0	1781051	690	0
0	1783709	691	0
0	1786288	692	8
0	1788640	693	1
0	1791269	694	1
0	1794112	695	0
0	1796821	696	0
0	1799430	697	2
0	1801896	698	0
0	1804363	699	3
0	1807055	700	5
0	1809624	701	0
0	1812071	702	0
0	1814468	703	0
0	1817077	704	8
0	1819795	705	2
0	1822562	706	2
0	1825017	707	0
0	1827437	708	0
0	1830008	709	0
0	1832756	710	5
0	1835570	711	2
0	1838266	712	0
0	1840825	713	0
0	1843419	714	0
0	1845902	715	0
0	1848681	716	4
0	1851349	717	0
0	1853860	718	2
0	1856475	719	0
0	1859041	720	3
0	1861686	721	0
0	1864370	722	0
0	1866736	723	2
0	1869401	724	0
0	1871995	725	0
0	1874469	726	0
0	1876974	727	13
0	1879569	728	0
0	1882358	729	0
0	1884929	730	5
0	1887418	731	0
0	1889973	732	0
0	1892322	733	0
0	1894892	734	0
0	1897540	735	0
0	1900146	736	1
0	1902860	737	6
0	1905458	738	0
0	1908084	739	0
0	1910368	740	4
0	1912862	741	0
0	1915427	742	4
0	1918028	743	0
0	1920518	744	1
0	1923070	745	0
0	1925610	746	0
0	1928192	747	0
0	1930502	748	6
0	1932999	749	4
0	1935721	750	2
0	1938212	751	0
0	1940753	752	0
0	1943318	753	0
0	1945756	754	0
0	1948274	755	0
0	1951146	756	0
0	1953569	757	0
0	1956067	758	0
0	1958666	759	0
0	1961092	760	1
0	1963466	761	0
0	1966037	762	0
0	1968535	763	0
0	1971051	764	0
0	1973680	765	3
0	1976078	766	2
0	1978585	767	1
0	1981052	768	1
0	1983578	769	0
0	1986034	770	0
0	1988744	771	3
0	1991160	772	0
0	1993496	773	0
0	1996267	774	0
0	1998736	775	2
0	2001318	776	5
0	2003972	777	0
0	2006544	778	0
0	2008844	779	0
0	2011558	780	2
0	2014250	781	0
0	2016967	782	1
0	2019649	783	0
0	2022380	784	0
0	2025012	785	2
0	2027553	786	0
0	2029976	787	3
0	2032485	788	0
0	2034882	789	0
0	2037570	790	0
0	2040216	791	1
0	2043068	792	0
0	2045981	793	0
0	2048513	794	0
0	2051047	795	4
0	2053410	796	0
0	2056016	797	0
0	2058513	798	2
0	2060643	799	3
0	2063151	800	5
0	2065709	801	1
0	2068289	802	1
0	2070864	803	2
0	2073613	804	0
0	2076115	805	0
0	2078866	806	2
0	2081489	807	1
0	2083972	808	4
0	2086546	809	0
0	2089115	810	0
0	2091605	811	3
0	2094212	812	2
0	2096706	813	0
0	2099429	814	0
0	2102301	815	5
0	2104746	816	1
0	2107355	817	2
0	2109903	818	0
0	2112579	819	1
0	2115380	820	2
0	2117923	821	5
0	2120522	822	2
0	2123060	823	3
0	2125405	824	1
0	2127967	825	3
0	2130682	826	0
0	2133385	827	0
0	2136116	828	4
0	2138558	829	0
0	2141084	830	0
0	2143831	831	0
0	2146481	832	8
0	2149107	833	1
0	2151635	834	0
0	2154229	835	1
0	2156873	836	0
0	2159380	837	2
0	2162042	838	0
0	2164628	839	0
0	2167141	840	2
0	2169799	841	0
0	2172488	842	6
0	2175140	843	3
0	2177767	844	8
0	2180178	845	0
0	2182611	846	0
0	2185103	847	1
0	2187514	848	0
0	2190121	849	0
0	2192852	850	0
0	2195226	851	3
0	2197850	852	0
0	2200157	853	0
0	2202580	854	2
0	2205094	855	3
0	2207818	856	6
0	2210506	857	8
0	2213235	858	2
0	2215591	859	1
0	2218123	860	2
0	2220685	861	2
0	2223345	862	2
0	2225724	863	3
0	2228393	864	0
0	2230881	865	0
0	2233687	866	4
0	2236271	867	10
0	2239107	868	1
0	2241852	869	2
0	2244241	870	0
0	2246726	871	0
0	2249180	872	0
0	2251764	873	1
0	2254192	874	5
0	2256762	875	0
0	2259369	876	6
0	2262020	877	0
0	2264652	878	3
0	2267154	879	0
0	2269698	880	0
0	2272439	881	0
0	2275004	882	0
0	2277420	883	2
0	2279969	884	4
0	2282498	885	2
0	2285341	886	0
0	2287980	887	2
0	2290527	888	4
0	2293439	889	4
0	2296138	890	1
0	2298506	891	0
0	2301212	892	2
0	2303785	893	3
0	2306537	894	1
0	2308773	895	2
0	2311421	896	3
0	2314162	897	1
0	2316732	898	0
0	2319154	899	3
0	2321827	900	1
0	2324351	901	0
0	2326922	902	0
0	2329431	903	0
0	2332206	904	0
0	2335009	905	0
0	2337748	906	0
0	2340217	907	0
0	2342874	908	1
0	2345368	909	0
0	2347855	910	0
0	2350657	911	1
0	2353604	912	2
0	2356222	913	1
0	2358765	914	0
0	2361062	915	2
0	2363720	916	0
0	2366388	917	0
0	2368948	918	5
0	2371608	919	0
0	2374207	920	2
0	2376630	921	0
0	2379195	922	0
0	2381752	923	0
0	2384298	924	1
0	2386778	925	0
0	2389283	926	0
0	2391777	927	3
0	2394471	928	3
0	2396805	929	3
0	2399538	930	1
0	2402124	931	3
0	2404719	932	4
0	2407355	933	2
0	2409932	934	1
0	2412232	935	1
0	2414806	936	0
0	2417291	937	1
0	2419659	938	0
0	2422379	939	1
0	2424807	940	2
0	2427337	941	0
0	2429668	942	0
0	2432119	943	0
0	2434594	944	0
0	2437283	945	0
0	2439706	946	0
0	2442061	947	0
0	2444672	948	1
0	2447140	949	2
0	2449971	950	0
0	2452518	951	0
0	2455063	952	2
0	2457649	953	0
0	2460099	954	0
0	2462416	955	1
0	2464799	956	2
0	2467477	957	0
0	2470111	958	0
0	2472593	959	4
0	2475233	960	4
0	2477956	961	3
0	2480650	962	3
0	2483160	963	0
0	2485733	964	5
0	2488196	965	0
0	2491069	966	0
0	2493649	967	0
0	2496210	968	0
0	2498708	969	0
0	2501167	970	0
0	2503376	971	3
0	2506067	972	0
0	2508646	973	1
0	2511183	974	1
0	2513823	975	0
0	2516367	976	0
0	2518849	977	0
0	2521411	978	4
0	2523905	979	0
0	2526515	980	0
0	2529382	981	2
0	2531859	982	0
0	2534470	983	0
0	2536912	984	2
0	2539478	985	0
0	2542095	986	0
0	2544873	987	0
0	2547526	988	0
0	2550146	989	0
0	2552814	990	0
0	2555337	991	0
0	2557715	992	0
0	2560027	993	3
0	2562560	994	0
0	2565134	995	17
0	2567690	996	2
0	2570075	997	0
0	2572519	998	0
0	2575071	999	0
0	2577784	1000	0
0	2580136	1001	0
0	2582647	1002	1
0	2585313	1003	0
0	2587794	1004	0
0	2590550	1005	0
0	2592970	1006	2
0	2595859	1007	2
0	2598594	1008	1
0	2601436	1009	11
0	2603920	1010	2
0	2606396	1011	3
0	2609371	1012	1
0	2611731	1013	0
0	2614295	1014	0
0	2616801	1015	0
0	2619325	1016	2
0	2621936	1017	4
0	2624485	1018	1
0	2627173	1019	5
0	2629771	1020	3
0	2632336	1021	3
0	2634978	1022	0
0	2637552	1023	0
0	2639951	1024	5
0	2642330	1025	0
0	2644724	1026	1
0	2647248	1027	0
0	2649977	1028	0
0	2652547	1029	0
0	2655089	1030	2
0	2657762	1031	0
0	2660291	1032	0
0	2662607	1033	3
0	2665291	1034	0
0	2667662	1035	0
0	2670201	1036	0
0	2672549	1037	0
0	2675240	1038	0
0	2677774	1039	0
0	2680326	1040	0
0	2683111	1041	5
0	2685522	1042	1
0	2688051	1043	5
0	2690636	1044	0
0	2693149	1045	1
0	2695528	1046	1
0	2698116	1047	0
0	2700749	1048	0
0	2703609	1049	0
0	2706138	1050	2
0	2708659	1051	3
0	2711165	1052	0
0	2713617	1053	0
0	2716234	1054	9
0	2718660	1055	0
0	2721150	1056	0
0	2723692	1057	5
0	2726310	1058	0
0	2728864	1059	0
0	2731551	1060	1
0	2734253	1061	3
0	2736502	1062	0
0	2739090	1063	0
0	2741575	1064	1
0	2744096	1065	0
0	2746852	1066	0
0	2749509	1067	3
0	2752034	1068	0
0	2754629	1069	0
0	2757235	1070	21
0	2759738	1071	0
0	2762198	1072	0
0	2764785	1073	0
0	2767317	1074	4
0	2770048	1075	0
0	2772827	1076	0
0	2775379	1077	4
0	2778108	1078	4
0	2780520	1079	0
0	2783037	1080	0
0	2785540	1081	0
0	2788079	1082	0
0	2790631	1083	0
0	2793164	1084	0
0	2795800	1085	8
0	2798405	1086	8
0	2800950	1087	0
0	2803380	1088	0
0	2805573	1089	0
0	2808210	1090	5
0	2810642	1091	0
0	2813324	1092	5
0	2815871	1093	3
0	2818510	1094	0
0	2821125	1095	3
0	2823648	1096	3
0	2826147	1097	0
0	2828687	1098	0
0	2831429	1099	0
0	2833819	1100	1
0	2836807	1101	1
0	2839308	1102	0
0	2841914	1103	5
0	2844477	1104	3
0	2847061	1105	2
0	2849686	1106	1
0	2852474	1107	1
0	2855363	1108	1
0	2858197	1109	5
0	2860772	1110	2
0	2863125	1111	0
0	2865650	1112	0
0	2868180	1113	5
0	2870849	1114	1
0	2873554	1115	0
0	2876008	1116	1
0	2878733	1117	5
0	2881136	1118	0
0	2883650	1119	0
0	2886170	1120	0
0	2888787	1121	1
0	2891468	1122	0
0	2894203	1123	5
0	2896723	1124	0
0	2899455	1125	0
0	2902222	1126	0
0	2904922	1127	1
0	2907567	1128	2
0	2910195	1129	0
0	2912851	1130	0
0	2915464	1131	0
0	2918050	1132	0
0	2920380	1133	2
0	2922909	1134	2
0	2925315	1135	0
0	2927779	1136	0
0	2930407	1137	0
0	2933341	1138	2
0	2935984	1139	4
0	2938580	1140	3
0	2941169	1141	14
0	2943866	1142	0
0	2946750	1143	14
0	2949395	1144	0
0	2951866	1145	0
0	2954532	1146	1
0	2956829	1147	3
0	2959414	1148	2
0	2962039	1149	0
0	2964566	1150	0
0	2967378	1151	1
0	2969957	1152	0
0	2972653	1153	0
0	2975104	1154	0
0	2977641	1155	4
0	2980278	1156	1
0	2983131	1157	0
0	2985724	1158	10
0	2988221	1159	1
0	2990880	1160	5
0	2993522	1161	5
0	2996328	1162	0
0	2998944	1163	0
0	3001564	1164	1
0	3004094	1165	4
0	3006622	1166	1
0	3009196	1167	1
0	3012127	1168	0
0	3014658	1169	2
0	3016909	1170	3
0	3019517	1171	0
0	3021693	1172	1
0	3024250	1173	4
0	3027020	1174	0
0	3029313	1175	1
0	3031599	1176	0
0	3034252	1177	0
0	3036943	1178	1
0	3039679	1179	0
0	3042246	1180	5
0	3044851	1181	12
0	3047631	1182	0
0	3050111	1183	5
0	3052716	1184	0
0	3055274	1185	0
0	3057763	1186	0
0	3060144	1187	2
0	3062845	1188	0
0	3065482	1189	6
0	3067914	1190	0
0	3070572	1191	4
0	3073256	1192	3
0	3075410	1193	0
0	3078016	1194	0
0	3080660	1195	0
0	3083226	1196	1
0	3085727	1197	0
0	3088321	1198	1
0	3090792	1199	4
0	3093368	1200	0
0	3095754	1201	0
0	3098235	1202	1
0	3100896	1203	0
0	3103649	1204	2
0	3106291	1205	0
0	3108987	1206	0
0	3111453	1207	2
0	3114097	1208	1
0	3116613	1209	0
0	3119154	1210	5
0	3121795	1211	2
0	3124576	1212	4
0	3127183	1213	0
0	3129771	1214	0
0	3132363	1215	0
0	3134903	1216	0
0	3137180	1217	0
0	3139660	1218	7
0	3142335	1219	3
0	3145104	1220	0
0	3147604	1221	0
0	3150128	1222	0
0	3152636	1223	2
0	3155271	1224	0
0	3158024	1225	6
0	3160457	1226	3
0	3162895	1227	0
0	3165531	1228	2
0	3168131	1229	0
0	3170373	1230	0
0	3173136	1231	4
0	3175732	1232	0
0	3178394	1233	0
0	3180776	1234	1
0	3183377	1235	0
0	3185466	1236	0
0	3188122	1237	4
0	3190565	1238	0
0	3193232	1239	0
0	3196166	1240	0
0	3198840	1241	2
0	3201677	1242	0
0	3204289	1243	1
0	3206889	1244	0
0	3209486	1245	3
0	3211985	1246	0
0	3214306	1247	1
0	3216500	1248	6
0	3218817	1249	7
0	3221267	1250	0
0	3223798	1251	0
0	3226117	1252	0
0	3228927	1253	0
0	3231458	1254	0
0	3233785	1255	0
0	3236359	1256	0
0	3238969	1257	0
0	3241629	1258	0
0	3244352	1259	1
0	3247053	1260	0
0	3249734	1261	8
0	3252345	1262	3
0	3254963	1263	0
0	3257667	1264	0
0	3260294	1265	8
0	3262987	1266	0
0	3265842	1267	3
0	3268608	1268	0
0	3271334	1269	1
0	3273995	1270	1
0	3276319	1271	5
0	3278937	1272	0
0	3281426	1273	0
0	3283836	1274	1
0	3286429	1275	1
0	3288801	1276	0
0	3291394	1277	0
0	3294108	1278	7
0	3296683	1279	0
0	3299650	1280	3
0	3302216	1281	2
0	3304651	1282	1
0	3307300	1283	0
0	3310137	1284	6
0	3312707	1285	0
0	3315230	1286	0
0	3317769	1287	0
0	3320361	1288	2
0	3322934	1289	0
0	3325577	1290	0
0	3328016	1291	0
0	3330634	1292	1
0	3333368	1293	1
0	3335956	1294	3
0	3338563	1295	2
0	3341133	1296	0
0	3343853	1297	0
0	3346341	1298	6
0	3348764	1299	0
0	3351341	1300	0
0	3353950	1301	2
0	3356644	1302	1
0	3359376	1303	4
0	3361975	1304	0
0	3364701	1305	1
0	3367246	1306	6
0	3369784	1307	0
0	3372476	1308	1
0	3374936	1309	0
0	3377817	1310	2
0	3380271	1311	0
0	3382550	1312	2
0	3385046	1313	0
0	3387796	1314	10
0	3390493	1315	1
0	3393298	1316	2
0	3395904	1317	4
0	3398482	1318	0
0	3401185	1319	0
0	3403637	1320	0
0	3406370	1321	0
0	3409095	1322	5
0	3411539	1323	0
0	3414065	1324	0
0	3416733	1325	5
0	3419461	1326	0
0	3421901	1327	0
0	3424533	1328	2
0	3427167	1329	6
0	3429900	1330	2
0	3432742	1331	4
0	3435398	1332	4
0	3437908	1333	0
0	3440337	1334	1
0	3443052	1335	1
0	3446008	1336	0
0	3448538	1337	2
0	3451166	1338	0
0	3453725	1339	0
0	3456353	1340	0
0	3459105	1341	1
0	3461758	1342	0
0	3464331	1343	0
0	3466685	1344	0
0	3468975	1345	0
0	3471511	1346	5
0	3474019	1347	0
0	3476506	1348	0
0	3479061	1349	1
0	3481723	1350	0
0	3484130	1351	0
0	3486827	1352	1
0	3489451	1353	0
0	3491845	1354	0
0	3494546	1355	0
0	3497001	1356	0
0	3499682	1357	0
0	3502036	1358	0
0	3504667	1359	7
0	3507338	1360	0
0	3509794	1361	10
0	3512103	1362	3
0	3514564	1363	0
0	3517251	1364	1
0	3519799	1365	12
0	3522299	1366	3
0	3524538	1367	0
0	3527203	1368	0
0	3529848	1369	0
0	3532419	1370	0
0	3534778	1371	7
0	3537362	1372	3
0	3539935	1373	0
0	3542514	1374	1
0	3545014	1375	0
0	3547579	1376	10
0	3549916	1377	2
0	3552744	1378	2
0	3555388	1379	0
0	3558051	1380	5
0	3560601	1381	0
0	3563080	1382	9
0	3565525	1383	0
0	3568074	1384	1
0	3570673	1385	11
0	3573456	1386	0
0	3575979	1387	2
0	3578222	1388	1
0	3580533	1389	0
0	3582930	1390	3
0	3585406	1391	2
0	3587842	1392	7
0	3590729	1393	8
0	3593444	1394	5
0	3596216	1395	2
0	3598727	1396	0
0	3601245	1397	1
0	3603830	1398	0
0	3606370	1399	6
0	3609117	1400	4
0	3611834	1401	0
0	3614321	1402	3
0	3616882	1403	2
0	3619216	1404	0
0	3621497	1405	0
0	3624285	1406	1
0	3626633	1407	6
0	3629361	1408	2
0	3632171	1409	4
0	3634516	1410	0
0	3636944	1411	1
0	3639471	1412	1
0	3641852	1413	0
0	3644410	1414	0
0	3647179	1415	1
0	3649862	1416	0
0	3652477	1417	2
0	3655132	1418	5
0	3657756	1419	3
0	3660377	1420	0
0	3662888	1421	0
0	3665362	1422	0
0	3668115	1423	0
0	3670785	1424	1
0	3673516	1425	1
0	3676171	1426	1
0	3678821	1427	0
0	3681296	1428	5
0	3683954	1429	3
0	3686637	1430	3
0	3689171	1431	4
0	3691982	1432	0
0	3694646	1433	2
0	3696997	1434	0
0	3699491	1435	3
0	3702184	1436	0
0	3704724	1437	0
0	3707251	1438	1
0	3709822	1439	3
0	3712395	1440	1
0	3715184	1441	3
0	3717815	1442	2
0	3720561	1443	0
0	3723268	1444	4
0	3725994	1445	0
0	3728554	1446	1
0	3731108	1447	4
0	3733591	1448	4
0	3736233	1449	0
0	3738784	1450	0
0	3741307	1451	0
0	3743861	1452	0
0	3746606	1453	0
0	3749158	1454	0
0	3751778	1455	0
0	3754328	1456	0
0	3757093	1457	0
0	3759337	1458	0
0	3761900	1459	3
0	3764484	1460	0
0	3766868	1461	4
0	3769379	1462	11
0	3772219	1463	5
0	3774946	1464	4
0	3777600	1465	1
0	3780276	1466	6
0	3782928	1467	2
0	3785597	1468	0
0	3788189	1469	0
0	3790803	1470	2
0	3793341	1471	6
0	3795700	1472	0
0	3798395	1473	0
0	3800835	1474	8
0	3803485	1475	1
0	3805808	1476	1
0	3808397	1477	2
0	3810826	1478	0
0	3813582	1479	2
0	3816223	1480	0
0	3818795	1481	11
0	3821352	1482	0
0	3823993	1483	6
0	3826682	1484	6
0	3828903	1485	2
0	3831564	1486	0
0	3834157	1487	0
0	3836640	1488	0
0	3839218	1489	3
0	3841761	1490	0
0	3844427	1491	0
0	3846885	1492	2
0	3849076	1493	0
0	3851716	1494	2
0	3854362	1495	7
0	3856808	1496	4
0	3859418	1497	0
0	3861825	1498	0
0	3864461	1499	0
0	3866934	1500	0
0	3869700	1501	8
0	3872516	1502	1
0	3875025	1503	0
0	3877497	1504	1
0	3879970	1505	0
0	3882702	1506	2
0	3885271	1507	0
0	3888021	1508	2
0	3890595	1509	3
0	3893194	1510	1
0	3895871	1511	14
0	3898239	1512	1
0	3900536	1513	6
0	3903221	1514	2
0	3905781	1515	0
0	3908512	1516	1
0	3910876	1517	1
0	3913444	1518	2
0	3916069	1519	0
0	3918693	1520	3
0	3921248	1521	4
0	3923871	1522	0
0	3926523	1523	3
0	3929204	1524	0
0	3931520	1525	0
0	3934183	1526	2
0	3936719	1527	0
0	3939186	1528	0
0	3941560	1529	0
0	3944060	1530	5
0	3946642	1531	0
0	3949102	1532	0
0	3951570	1533	3
0	3953876	1534	4
0	3956536	1535	6
0	3959438	1536	5
0	3962072	1537	2
0	3964823	1538	0
0	3967397	1539	0
0	3969869	1540	6
0	3972614	1541	6
0	3975304	1542	0
0	3977853	1543	1
0	3980356	1544	2
0	3982862	1545	0
0	3985219	1546	0
0	3987911	1547	1
0	3990414	1548	0
0	3992935	1549	2
0	3995639	1550	9
0	3998196	1551	1
0	4000689	1552	0
0	4003287	1553	2
0	4005792	1554	1
0	4008332	1555	1
0	4010873	1556	0
0	4013448	1557	0
0	4015962	1558	0
0	4018670	1559	8
0	4021328	1560	0
0	4023828	1561	3
0	4026563	1562	0
0	4029168	1563	0
0	4031892	1564	0
0	4034357	1565	3
0	4036772	1566	0
0	4039374	1567	0
0	4041976	1568	3
0	4044562	1569	2
0	4047078	1570	0
0	4049844	1571	0
0	4052540	1572	1
0	4054984	1573	0
0	4057396	1574	0
0	4059857	1575	0
0	4062674	1576	0
0	4065119	1577	4
0	4067458	1578	0
0	4069960	1579	0
0	4072744	1580	0
0	4075443	1581	2
0	4077972	1582	0
0	4080626	1583	7
0	4083018	1584	0
0	4085580	1585	1
0	4088178	1586	2
0	4091013	1587	2
0	4093582	1588	0
0	4096029	1589	0
0	4098739	1590	0
0	4101343	1591	0
0	4103788	1592	0
0	4106359	1593	0
0	4108920	1594	0
0	4111402	1595	0
0	4114025	1596	2
0	4116444	1597	0
0	4119065	1598	2
0	4121783	1599	0
0	4124259	1600	2
0	4126744	1601	0
0	4129249	1602	1
0	4131880	1603	0
0	4134212	1604	0
0	4136820	1605	2
0	4139558	1606	0
0	4142123	1607	2
0	4144763	1608	6
0	4147343	1609	1
0	4149737	1610	2
0	4152427	1611	2
0	4155073	1612	0
0	4157478	1613	1
0	4160200	1614	0
0	4162850	1615	0
0	4165375	1616	0
0	4168065	1617	2
0	4170616	1618	4
0	4172987	1619	0
0	4175490	1620	0
0	4177993	1621	0
0	4180537	1622	1
0	4183222	1623	1
0	4185795	1624	0
0	4188354	1625	2
0	4190872	1626	3
0	4193687	1627	0
0	4196269	1628	0
0	4198627	1629	0
0	4201334	1630	6
0	4203809	1631	0
0	4206276	1632	6
0	4208844	1633	0
0	4211484	1634	1
0	4214137	1635	0
0	4216561	1636	0
0	4219112	1637	3
0	4221935	1638	2
0	4224384	1639	0
0	4226974	1640	3
0	4229510	1641	0
0	4232167	1642	2
0	4234797	1643	0
0	4237754	1644	0
0	4240426	1645	0
0	4242956	1646	1
0	4245566	1647	0
0	4248151	1648	0
0	4250624	1649	0
0	4253117	1650	0
0	4255626	1651	4
0	4258085	1652	5
0	4260771	1653	1
0	4263423	1654	0
0	4265896	1655	3
0	4268764	1656	2
0	4271383	1657	0
0	4274057	1658	0
0	4276761	1659	0
0	4279372	1660	3
0	4282073	1661	0
0	4284620	1662	4
0	4287205	1663	3
0	4289885	1664	1
0	4292091	1665	0
0	4294607	1666	3
0	4297138	1667	0
0	4299937	1668	0
0	4302605	1669	10
0	4305251	1670	1
0	4307396	1671	1
0	4309853	1672	0
0	4312356	1673	2
0	4315114	1674	1
0	4317834	1675	0
0	4320390	1676	0
0	4322843	1677	0
0	4325329	1678	0
0	4327928	1679	0
0	4330508	1680	3
0	4333113	1681	5
0	4335587	1682	1
0	4338307	1683	1
0	4340833	1684	4
0	4343649	1685	5
0	4346434	1686	2
0	4349110	1687	2
0	4351751	1688	0
0	4354241	1689	0
0	4356786	1690	0
0	4359458	1691	0
0	4362009	1692	2
0	4364792	1693	2
0	4367367	1694	4
0	4370011	1695	0
0	4372393	1696	0
0	4374948	1697	14
0	4377687	1698	1
0	4380412	1699	0
0	4383055	1700	0
0	4385641	1701	2
0	4388290	1702	1
0	4390989	1703	7
0	4393663	1704	4
0	4396149	1705	2
0	4398974	1706	0
0	4401522	1707	0
0	4404016	1708	2
0	4406717	1709	2
0	4409556	1710	0
0	4411875	1711	0
0	4414433	1712	0
0	4417017	1713	0
0	4419730	1714	0
0	4422261	1715	1
0	4424700	1716	0
0	4427183	1717	0
0	4429733	1718	0
0	4432481	1719	0
0	4435030	1720	0
0	4437649	1721	1
0	4440206	1722	1
0	4442937	1723	6
0	4445661	1724	0
0	4448315	1725	4
0	4450701	1726	0
0	4453416	1727	3
0	4455862	1728	0
0	4458509	1729	13
0	4461112	1730	0
0	4463693	1731	0
0	4466083	1732	0
0	4468251	1733	4
0	4471103	1734	2
0	4473535	1735	1
0	4476009	1736	0
0	4478720	1737	0
0	4481480	1738	8
0	4484217	1739	0
0	4486965	1740	0
0	4489410	1741	0
0	4492282	1742	0
0	4494891	1743	0
0	4497446	1744	7
0	4500156	1745	0
0	4502906	1746	0
0	4505290	1747	5
0	4507914	1748	0
0	4510403	1749	0
0	4513033	1750	0
0	4515680	1751	0
0	4518092	1752	7
0	4520437	1753	0
0	4522756	1754	0
0	4525364	1755	4
0	4527668	1756	0
0	4529999	1757	0
0	4532552	1758	4
0	4534976	1759	0
0	4537802	1760	0
0	4540150	1761	9
0	4542745	1762	0
0	4545548	1763	0
0	4548266	1764	0
0	4550774	1765	0
0	4553554	1766	0
0	4556126	1767	2
0	4558588	1768	0
0	4561050	1769	2
0	4563406	1770	0
0	4565822	1771	1
0	4568374	1772	0
0	4571004	1773	0
0	4573304	1774	5
0	4575824	1775	6
0	4578474	1776	2
0	4581273	1777	0
0	4583807	1778	3
0	4586279	1779	1
0	4589074	1780	0
0	4591730	1781	0
0	4594311	1782	0
0	4596989	1783	4
0	4599534	1784	0
0	4602051	1785	1
0	4604742	1786	0
0	4607442	1787	0
0	4610151	1788	0
0	4612643	1789	0
0	4615141	1790	5
0	4617665	1791	3
0	4620244	1792	3
0	4622952	1793	0
0	4625595	1794	0
0	4628345	1795	1
0	4631068	1796	0
0	4633666	1797	0
0	4636082	1798	5
0	4638561	1799	1
0	4641114	1800	4
0	4643600	1801	2
0	4646354	1802	1
0	4649103	1803	3
0	4651635	1804	7
0	4654666	1805	0
0	4657278	1806	2
0	4659763	1807	3
0	4662325	1808	1
0	4664761	1809	1
0	4667521	1810	0
0	4670044	1811	0
0	4672634	1812	3
0	4675126	1813	3
0	4677667	1814	0
0	4680244	1815	5
0	4682828	1816	0
0	4685314	1817	0
0	4688116	1818	1
0	4690790	1819	0
0	4693382	1820	2
0	4695918	1821	12
0	4698383	1822	4
0	4700869	1823	0
0	4703504	1824	0
0	4706201	1825	3
0	4708899	1826	0
0	4711695	1827	2
0	4714402	1828	0
0	4716965	1829	0
0	4719478	1830	0
0	4722004	1831	0
0	4724610	1832	10
0	4727236	1833	6
0	4729939	1834	0
0	4732351	1835	0
0	4734691	1836	0
0	4737223	1837	0
0	4739856	1838	1
0	4742223	1839	6
0	4744713	1840	0
0	4747321	1841	3
0	4749793	1842	0
0	4752302	1843	3
0	4754782	1844	5
0	4757308	1845	1
0	4759654	1846	1
0	4762330	1847	0
0	4765058	1848	8
0	4767571	1849	5
0	4770347	1850	0
0	4773061	1851	0
0	4775836	1852	17
0	4778685	1853	3
0	4781131	1854	5
0	4783704	1855	0
0	4786247	1856	5
0	4788903	1857	0
0	4791373	1858	1
0	4794000	1859	6
0	4796353	1860	0
0	4799030	1861	4
0	4801562	1862	3
0	4804382	1863	4
0	4807061	1864	0
0	4809839	1865	0
0	4812464	1866	1
0	4815136	1867	0
0	4817748	1868	4
0	4820305	1869	0
0	4822899	1870	0
0	4825336	1871	1
0	4827731	1872	2
0	4830220	1873	0
0	4832707	1874	3
0	4835443	1875	0
0	4837886	1876	4
0	4840623	1877	0
0	4842945	1878	0
0	4845423	1879	7
0	4847883	1880	2
0	4850445	1881	0
0	4853052	1882	5
0	4855685	1883	2
0	4858264	1884	1
0	4860999	1885	5
0	4863446	1886	3
0	4866260	1887	2
0	4868913	1888	0
0	4871726	1889	3
0	4874315	1890	1
0	4876972	1891	1
0	4879410	1892	0
0	4882140	1893	2
0	4884862	1894	5
0	4887491	1895	0
0	4890221	1896	0
0	4892788	1897	0
0	4895444	1898	3
0	4897914	1899	0
0	4900656	1900	2
0	4903009	1901	0
0	4905586	1902	0
0	4907842	1903	3
0	4910333	1904	4
0	4912947	1905	0
0	4915628	1906	0
0	4917955	1907	0
0	4920687	1908	0
0	4923233	1909	0
0	4925555	1910	1
0	4928346	1911	7
0	4931041	1912	0
0	4933728	1913	0
0	4936514	1914	8
0	4939193	1915	1
0	4941784	1916	6
0	4944405	1917	0
0	4947121	1918	12
0	4949799	1919	1
0	4952445	1920	2
0	4954783	1921	1
0	4957406	1922	0
0	4960130	1923	3
0	4962562	1924	4
0	4965129	1925	4
0	4967921	1926	0
0	4970462	1927	4
0	4972847	1928	0
0	4975487	1929	5
0	4977998	1930	3
0	4980796	1931	0
0	4983434	1932	1
0	4985874	1933	0
0	4988500	1934	0
0	4991009	1935	1
0	4993529	1936	0
0	4996157	1937	2
0	4998519	1938	0
0	5000947	1939	0
0	5003030	1940	0
0	5005802	1941	3
0	5008295	1942	2
0	5010910	1943	2
0	5013323	1944	0
0	5015786	1945	1
0	5018327	1946	2
0	5020829	1947	2
0	5023497	1948	0
0	5026002	1949	4
0	5028709	1950	0
0	5031586	1951	0
0	5033978	1952	0
0	5036551	1953	5
0	5039143	1954	4
0	5041615	1955	0
0	5044429	1956	10
0	5047087	1957	0
0	5049684	1958	7
0	5052214	1959	3
0	5054795	1960	4
0	5057147	1961	1
0	5059669	1962	2
0	5062179	1963	0
0	5064596	1964	0
0	5067205	1965	1
0	5069689	1966	6
0	5072201	1967	2
0	5074807	1968	4
0	5077379	1969	2
0	5079930	1970	1
0	5082521	1971	4
0	5085164	1972	0
0	5087501	1973	0
0	5089978	1974	2
0	5092777	1975	2
0	5095459	1976	0
0	5097948	1977	0
0	5100456	1978	0
0	5103153	1979	0
0	5105920	1980	3
0	5108750	1981	0
0	5111235	1982	0
0	5113593	1983	0
0	5116017	1984	3
0	5118511	1985	0
0	5120835	1986	2
0	5123617	1987	4
0	5125961	1988	0
0	5128678	1989	0
0	5131167	1990	2
0	5133821	1991	0
0	5136240	1992	4
0	5138825	1993	0
0	5141388	1994	4
0	5143783	1995	1
0	5146530	1996	3
0	5149145	1997	0
0	5151926	1998	11
0	5154746	1999	8
0	5157447	2000	1
0	5159985	2001	1
0	5162599	2002	2
0	5165252	2003	1
0	5167897	2004	2
0	5170136	2005	3
0	5172549	2006	2
0	5174974	2007	0
0	5177493	2008	0
0	5180038	2009	0
0	5182645	2010	4
0	5185180	2011	2
0	5187655	2012	7
0	5190258	2013	0
0	5193020	2014	1
0	5195627	2015	0
0	5198051	2016	2
0	5200731	2017	9
0	5203264	2018	0
0	5205983	2019	0
0	5208395	2020	0
0	5211041	2021	3
0	5213362	2022	5
0	5215903	2023	0
0	5218512	2024	1
0	5221150	2025	9
0	5223693	2026	6
0	5226473	2027	2
0	5228909	2028	1
0	5231542	2029	2
0	5234186	2030	2
0	5236884	2031	16
0	5239637	2032	0
0	5242139	2033	0
0	5244758	2034	1
0	5247527	2035	3
0	5250199	2036	0
0	5252859	2037	3
0	5255389	2038	2
0	5257807	2039	0
0	5260183	2040	2
0	5263043	2041	0
0	5265755	2042	1
0	5268353	2043	1
0	5271094	2044	0
0	5273713	2045	0
0	5276334	2046	0
0	5279163	2047	0
0	5281736	2048	1
0	5284460	2049	0
0	5287151	2050	6
0	5289527	2051	2
0	5291970	2052	8
0	5294580	2053	0
0	5297166	2054	0
0	5299727	2055	2
0	5302359	2056	0
0	5305052	2057	0
0	5307654	2058	0
0	5310323	2059	1
0	5312734	2060	0
0	5315421	2061	2
0	5318151	2062	0
0	5320665	2063	1
0	5323331	2064	0
0	5326042	2065	0
0	5328605	2066	4
0	5331425	2067	0
0	5334129	2068	7
0	5336357	2069	0
0	5339075	2070	0
0	5341555	2071	0
0	5344107	2072	1
0	5346719	2073	3
0	5349159	2074	0
0	5351843	2075	0
0	5354325	2076	1
0	5356724	2077	0
0	5359157	2078	5
0	5361827	2079	2
0	5364464	2080	1
0	5367205	2081	0
0	5369689	2082	0
0	5372286	2083	4
0	5375102	2084	0
0	5377678	2085	4
0	5380238	2086	4
0	5382831	2087	0
0	5385183	2088	0
0	5387760	2089	0
0	5390405	2090	3
0	5393117	2091	3
0	5395696	2092	1
0	5398579	2093	1
0	5401257	2094	3
0	5403946	2095	0
0	5406676	2096	0
0	5409250	2097	10
0	5411965	2098	0
0	5414529	2099	0
0	5416936	2100	0
0	5419439	2101	0
0	5421935	2102	3
0	5424539	2103	4
0	5427185	2104	1
0	5429799	2105	3
0	5432500	2106	3
0	5435016	2107	0
0	5437739	2108	2
0	5440525	2109	3
0	5443137	2110	2
0	5445700	2111	0
0	5448393	2112	2
0	5451151	2113	0
0	5453691	2114	4
0	5456207	2115	0
0	5458557	2116	9
0	5461212	2117	0
0	5463842	2118	1
0	5466284	2119	0
0	5468751	2120	0
0	5471416	2121	4
0	5473949	2122	0
0	5476412	2123	0
0	5478965	2124	5
0	5481698	2125	0
0	5484372	2126	6
0	5486892	2127	0
0	5489457	2128	2
0	5491887	2129	0
0	5494200	2130	1
0	5496915	2131	1
0	5499552	2132	2
0	5502194	2133	0
0	5504806	2134	0
0	5507176	2135	4
0	5509819	2136	0
0	5512159	2137	4
0	5514643	2138	0
0	5517291	2139	0
0	5519891	2140	0
0	5522523	2141	0
0	5525080	2142	1
0	5527618	2143	1
0	5530186	2144	1
0	5532674	2145	0
0	5535494	2146	0
0	5537979	2147	0
0	5540742	2148	0
0	5543196	2149	0
0	5545774	2150	4
0	5548390	2151	0
0	5550741	2152	1
0	5553647	2153	6
0	5556244	2154	9
0	5558883	2155	1
0	5561339	2156	6
0	5563829	2157	0
0	5566390	2158	3
0	5568961	2159	1
0	5571539	2160	3
0	5573828	2161	3
0	5575960	2162	1
0	5578242	2163	0
0	5580828	2164	0
0	5583460	2165	0
0	5586218	2166	0
0	5588968	2167	3
0	5591359	2168	1
0	5593965	2169	0
0	5596497	2170	0
0	5599083	2171	0
0	5601761	2172	0
0	5604184	2173	0
0	5606524	2174	5
0	5609077	2175	4
0	5611747	2176	0
0	5614464	2177	1
0	5616974	2178	10
0	5619569	2179	0
0	5622073	2180	0
0	5624635	2181	1
0	5627110	2182	0
0	5629778	2183	0
0	5632180	2184	5
0	5635018	2185	0
0	5637644	2186	1
0	5640090	2187	0
0	5642814	2188	7
0	5645670	2189	0
0	5648032	2190	0
0	5650200	2191	14
0	5652806	2192	0
0	5655307	2193	0
0	5657906	2194	5
0	5660662	2195	5
0	5663099	2196	0
0	5665767	2197	0
0	5668327	2198	3
0	5670944	2199	2
0	5673713	2200	0
0	5676451	2201	6
0	5679168	2202	5
0	5681850	2203	2
0	5684546	2204	0
0	5686815	2205	0
0	5689373	2206	1
0	5692061	2207	3
0	5694396	2208	2
0	5697067	2209	3
0	5699658	2210	1
0	5702364	2211	0
0	5704794	2212	0
0	5707639	2213	3
0	5710298	2214	0
0	5713047	2215	7
0	5715681	2216	0
0	5718349	2217	0
0	5721108	2218	0
0	5723598	2219	0
0	5726287	2220	2
0	5728917	2221	2
0	5731394	2222	1
0	5733917	2223	0
0	5736424	2224	2
0	5739041	2225	3
0	5741819	2226	0
0	5744364	2227	4
0	5746783	2228	1
0	5749339	2229	6
0	5751987	2230	0
0	5754500	2231	0
0	5757173	2232	0
0	5759891	2233	0
0	5762416	2234	0
0	5765073	2235	0
0	5767504	2236	0
0	5770226	2237	2
0	5772902	2238	0
0	5775160	2239	0
0	5777865	2240	0
0	5780315	2241	0
0	5782839	2242	4
0	5785437	2243	0
0	5788114	2244	0
0	5790496	2245	5
0	5793245	2246	3
0	5795847	2247	2
0	5798466	2248	0
0	5801100	2249	0
0	5803814	2250	0
0	5806030	2251	0
0	5808738	2252	0
0	5811187	2253	1
0	5813696	2254	0
0	5816515	2255	3
0	5818837	2256	0
0	5821550	2257	0
0	5823983	2258	0
0	5826411	2259	0
0	5829025	2260	0
0	5831782	2261	0
0	5834525	2262	1
0	5837193	2263	0
0	5839966	2264	0
0	5842620	2265	0
0	5845225	2266	1
0	5847717	2267	0
0	5850363	2268	4
0	5852755	2269	2
0	5855232	2270	3
0	5857694	2271	8
0	5859901	2272	1
0	5862482	2273	3
0	5865143	2274	0
0	5867658	2275	0
0	5870172	2276	2
0	5872800	2277	0
0	5875209	2278	1
0	5877659	2279	2
0	5880360	2280	1
0	5882962	2281	0
0	5885358	2282	3
0	5887958	2283	0
0	5890583	2284	5
0	5893148	2285	0
0	5895397	2286	0
0	5897769	2287	0
0	5900251	2288	0
0	5903118	2289	8
0	5905672	2290	0
0	5908448	2291	2
0	5911189	2292	0
0	5913819	2293	0
0	5916355	2294	2
0	5919054	2295	0
0	5921603	2296	0
0	5924101	2297	6
0	5926770	2298	0
0	5929546	2299	1
0	5932186	2300	0
0	5934679	2301	2
0	5937167	2302	3
0	5939733	2303	2
0	5942201	2304	1
0	5944412	2305	1
0	5947071	2306	0
0	5949644	2307	2
0	5952186	2308	0
0	5954559	2309	0
0	5956928	2310	0
0	5959423	2311	5
0	5961948	2312	0
0	5964314	2313	0
0	5966894	2314	2
0	5969449	2315	0
0	5971958	2316	0
0	5974498	2317	0
0	5977009	2318	1
0	5979648	2319	2
0	5982467	2320	1
0	5985011	2321	0
0	5987581	2322	0
0	5990202	2323	0
0	5992752	2324	0
0	5995436	2325	3
0	5998090	2326	0
0	6000900	2327	7
0	6003490	2328	1
0	6006054	2329	7
0	6008750	2330	0
0	6011308	2331	0
0	6013756	2332	8
0	6016489	2333	0
0	6019054	2334	5
0	6021643	2335	5
0	6024270	2336	0
0	6026914	2337	2
0	6029465	2338	1
0	6031989	2339	2
0	6034695	2340	2
0	6037368	2341	0
0	6039959	2342	6
0	6042554	2343	1
0	6045028	2344	1
0	6047839	2345	0
0	6050409	2346	0
0	6052923	2347	4
0	6055356	2348	0
0	6057938	2349	4
0	6060564	2350	3
0	6063231	2351	0
0	6065906	2352	1
0	6068173	2353	0
0	6070501	2354	0
0	6073160	2355	0
0	6075694	2356	3
0	6078155	2357	6
0	6080736	2358	0
0	6083176	2359	0
0	6085657	2360	5
0	6088362	2361	0
0	6090812	2362	0
0	6093458	2363	0
0	6096036	2364	0
0	6098462	2365	1
0	6100927	2366	4
0	6103673	2367	0
0	6106230	2368	0
0	6108694	2369	0
0	6111218	2370	4
0	6113748	2371	4
0	6116234	2372	4
0	6118855	2373	0
0	6121292	2374	0
0	6123968	2375	2
0	6126532	2376	0
0	6129020	2377	4
0	6131882	2378	0
0	6134613	2379	1
0	6137156	2380	0
0	6139325	2381	2
0	6141848	2382	3
0	6144430	2383	0
0	6147000	2384	0
0	6149468	2385	0
0	6152400	2386	1
0	6155013	2387	4
0	6157350	2388	1
0	6159828	2389	1
0	6162082	2390	0
0	6164649	2391	2
0	6167130	2392	10
0	6169789	2393	0
0	6172374	2394	0
0	6174931	2395	1
0	6177468	2396	0
0	6180120	2397	0
0	6182852	2398	2
0	6185696	2399	0
0	6187965	2400	0
0	6190517	2401	0
0	6193232	2402	0
0	6196045	2403	5
0	6198792	2404	1
0	6201529	2405	2
0	6204265	2406	4
0	6206956	2407	1
0	6209648	2408	0
0	6212061	2409	2
0	6214565	2410	7
0	6217167	2411	0
0	6219619	2412	0
0	6222560	2413	2
0	6225125	2414	0
0	6227325	2415	1
0	6230051	2416	1
0	6232579	2417	0
0	6235355	2418	1
0	6237914	2419	5
0	6240575	2420	3
0	6243052	2421	0
0	6245706	2422	0
0	6248183	2423	1
0	6250911	2424	0
0	6253569	2425	0
0	6256069	2426	0
0	6258651	2427	6
0	6261203	2428	0
0	6263829	2429	3
0	6266153	2430	2
0	6268727	2431	0
0	6271112	2432	1
0	6273747	2433	1
0	6276438	2434	0
0	6278763	2435	2
0	6280973	2436	0
0	6283426	2437	1
0	6286077	2438	0
0	6288829	2439	5
0	6291601	2440	0
0	6294122	2441	0
0	6296552	2442	2
0	6299214	2443	3
0	6302030	2444	3
0	6304414	2445	1
0	6307114	2446	3
0	6309730	2447	0
0	6312015	2448	0
0	6314510	2449	0
0	6316928	2450	9
0	6319738	2451	1
0	6322361	2452	0
0	6325134	2453	2
0	6327705	2454	0
0	6330479	2455	1
0	6333044	2456	12
0	6335796	2457	7
0	6338202	2458	0
0	6340545	2459	0
0	6343062	2460	2
0	6345622	2461	0
0	6348272	2462	2
0	6350901	2463	0
0	6353661	2464	0
0	6356221	2465	1
0	6358809	2466	0
0	6361142	2467	0
0	6363772	2468	0
0	6366318	2469	0
0	6368986	2470	8
0	6371584	2471	0
0	6374277	2472	0
0	6377085	2473	1
0	6379723	2474	0
0	6382428	2475	1
0	6385156	2476	3
0	6387672	2477	0
0	6390530	2478	1
0	6393211	2479	2
0	6395818	2480	1
0	6398431	2481	0
0	6400946	2482	1
0	6403400	2483	0
0	6406217	2484	0
0	6408939	2485	0
0	6411677	2486	0
0	6414544	2487	0
0	6417006	2488	2
0	6419431	2489	4
0	6422197	2490	0
0	6424753	2491	5
0	6427163	2492	0
0	6429801	2493	3
0	6432314	2494	0
0	6434875	2495	1
0	6437594	2496	1
0	6440174	2497	0
0	6442880	2498	0
0	6445548	2499	0
0	6448253	2500	0
0	6450876	2501	5
0	6453485	2502	0
0	6456201	2503	0
0	6458796	2504	0
0	6461381	2505	0
0	6464131	2506	0
0	6466707	2507	2
0	6469147	2508	0
0	6471753	2509	3
0	6474335	2510	0
0	6476798	2511	1
0	6479518	2512	0
0	6481858	2513	0
0	6484263	2514	0
0	6486720	2515	3
0	6489378	2516	0
0	6491909	2517	0
0	6494305	2518	4
0	6496947	2519	3
0	6499328	2520	1
0	6501886	2521	4
0	6504345	2522	3
0	6507012	2523	4
0	6509429	2524	0
0	6512042	2525	2
0	6514598	2526	1
0	6517151	2527	1
0	6519638	2528	1
0	6522308	2529	1
0	6524816	2530	3
0	6527616	2531	0
0	6530251	2532	0
0	6532658	2533	0
0	6534832	2534	0
0	6537335	2535	0
0	6539689	2536	0
0	6542387	2537	3
0	6545024	2538	0
0	6547485	2539	7
0	6550052	2540	0
0	6552606	2541	2
0	6555263	2542	0
0	6557791	2543	0
0	6560245	2544	1
0	6563022	2545	1
0	6565483	2546	2
0	6568213	2547	0
0	6570696	2548	0
0	6573236	2549	2
0	6575776	2550	0
0	6578091	2551	6
0	6580606	2552	7
0	6583221	2553	0
0	6585794	2554	4
0	6588503	2555	0
0	6591117	2556	3
0	6593743	2557	1
0	6595944	2558	0
0	6598517	2559	0
0	6600938	2560	0
0	6603605	2561	1
0	6606268	2562	1
0	6609004	2563	1
0	6611563	2564	2
0	6613976	2565	1
0	6616565	2566	6
0	6619044	2567	1
0	6621790	2568	1
0	6624106	2569	1
0	6626654	2570	0
0	6629095	2571	2
0	6631771	2572	0
0	6634292	2573	0
0	6636845	2574	0
0	6639503	2575	0
0	6642027	2576	7
0	6644602	2577	4
0	6647090	2578	7
0	6649648	2579	7
0	6651963	2580	4
0	6654412	2581	4
0	6657032	2582	0
0	6659507	2583	4
0	6661896	2584	0
0	6664312	2585	1
0	6666980	2586	2
0	6669644	2587	2
0	6672379	2588	4
0	6674887	2589	0
0	6677515	2590	1
0	6680024	2591	7
0	6682659	2592	0
0	6685090	2593	0
0	6687106	2594	2
0	6689774	2595	1
0	6692163	2596	1
0	6694915	2597	4
0	6697680	2598	0
0	6700270	2599	0
0	6702792	2600	0
0	6705504	2601	0
0	6708022	2602	0
0	6710622	2603	0
0	6712991	2604	0
0	6715433	2605	1
0	6717988	2606	7
0	6720644	2607	0
0	6723094	2608	0
0	6725689	2609	0
0	6728024	2610	2
0	6730185	2611	2
0	6732512	2612	7
0	6735033	2613	0
0	6737459	2614	0
0	6739892	2615	1
0	6742302	2616	0
0	6744743	2617	0
0	6747365	2618	11
0	6749847	2619	0
0	6752342	2620	6
0	6754841	2621	0
0	6757317	2622	3
0	6759946	2623	0
0	6762440	2624	0
0	6764958	2625	6
0	6767485	2626	0
0	6769787	2627	1
0	6772010	2628	3
0	6774361	2629	0
0	6776805	2630	0
0	6779440	2631	2
0	6781939	2632	1
0	6784702	2633	4
0	6787343	2634	0
0	6790112	2635	4
0	6792853	2636	0
0	6795527	2637	6
0	6798258	2638	0
0	6800770	2639	0
0	6803462	2640	1
0	6806029	2641	0
0	6808565	2642	0
0	6811069	2643	3
0	6813655	2644	3
0	6816309	2645	0
0	6819102	2646	0
0	6821762	2647	0
0	6824187	2648	0
0	6826798	2649	0
0	6829452	2650	0
0	6831971	2651	3
0	6834577	2652	0
0	6837051	2653	0
0	6839419	2654	1
0	6841990	2655	4
0	6844587	2656	0
0	6847202	2657	2
0	6849782	2658	6
0	6852117	2659	0
0	6854728	2660	0
0	6857241	2661	2
0	6859815	2662	1
0	6862406	2663	4
0	6865064	2664	0
0	6867756	2665	0
0	6870205	2666	0
0	6872704	2667	0
0	6875598	2668	1
0	6878019	2669	4
0	6880542	2670	2
0	6883204	2671	0
0	6885579	2672	2
0	6888171	2673	0
0	6890674	2674	0
0	6893193	2675	3
0	6896086	2676	1
0	6898634	2677	0
0	6901159	2678	0
0	6903841	2679	5
0	6906420	2680	1
0	6909040	2681	3
0	6911665	2682	13
0	6914099	2683	0
0	6916721	2684	9
0	6919258	2685	1
0	6921791	2686	5
0	6924384	2687	0
0	6926847	2688	3
0	6929282	2689	0
0	6931904	2690	6
0	6934492	2691	1
0	6937166	2692	5
0	6939968	2693	1
0	6942614	2694	1
0	6945425	2695	1
0	6947724	2696	4
0	6950082	2697	9
0	6952857	2698	6
0	6955452	2699	3
0	6958115	2700	5
0	6960681	2701	3
0	6963307	2702	4
0	6965874	2703	1
0	6968303	2704	2
0	6970985	2705	0
0	6973517	2706	0
0	6975987	2707	0
0	6978344	2708	5
0	6980790	2709	3
0	6983299	2710	0
0	6985838	2711	0
0	6988488	2712	0
0	6990964	2713	0
0	6993424	2714	11
0	6996101	2715	0
0	6998720	2716	2
0	7001247	2717	0
0	7003847	2718	0
0	7006311	2719	11
0	7008938	2720	0
0	7011627	2721	2
0	7014253	2722	5
0	7016862	2723	1
0	7019484	2724	1
0	7022223	2725	0
0	7024685	2726	3
0	7027395	2727	5
0	7030043	2728	5
0	7032553	2729	0
0	7034937	2730	2
0	7037576	2731	0
0	7040094	2732	0
0	7042459	2733	0
0	7044565	2734	4
0	7047176	2735	0
0	7049676	2736	3
0	7052600	2737	0
0	7055429	2738	2
0	7057917	2739	0
0	7060416	2740	0
0	7063069	2741	0
0	7065655	2742	0
0	7068429	2743	13
0	7071118	2744	0
0	7074015	2745	2
0	7076482	2746	1
0	7079220	2747	0
0	7081745	2748	0
0	7084208	2749	1
0	7086767	2750	1
0	7089483	2751	2
0	7092161	2752	0
0	7094697	2753	6
0	7097173	2754	0
0	7099577	2755	0
0	7101967	2756	0
0	7104559	2757	1
0	7107050	2758	1
0	7109815	2759	0
0	7112450	2760	14
0	7115132	2761	1
0	7117667	2762	2
0	7120005	2763	0
0	7122578	2764	0
0	7125081	2765	1
0	7127728	2766	0
0	7130236	2767	2
0	7133059	2768	0
0	7135466	2769	11
0	7137991	2770	0
0	7140614	2771	1
0	7143357	2772	4
0	7145738	2773	0
0	7148148	2774	0
0	7150982	2775	2
0	7153493	2776	1
0	7156217	2777	0
0	7158673	2778	2
0	7161325	2779	0
0	7164104	2780	1
0	7166652	2781	1
0	7169459	2782	2
0	7172233	2783	1
0	7174902	2784	0
0	7177767	2785	0
0	7180280	2786	1
0	7182767	2787	1
0	7185212	2788	0
0	7188028	2789	1
0	7190644	2790	0
0	7193148	2791	0
0	7195853	2792	0
0	7198382	2793	2
0	7201035	2794	3
0	7203747	2795	0
0	7206190	2796	0
0	7208537	2797	0
0	7211236	2798	0
0	7213902	2799	2
0	7216495	2800	0
0	7219134	2801	1
0	7221660	2802	5
0	7224247	2803	0
0	7226745	2804	1
0	7229335	2805	0
0	7231978	2806	0
0	7234731	2807	0
0	7236880	2808	0
0	7239336	2809	0
0	7241880	2810	1
0	7244625	2811	2
0	7247405	2812	0
0	7250208	2813	3
0	7252971	2814	2
0	7255547	2815	0
0	7257949	2816	0
0	7260499	2817	1
0	7263039	2818	1
0	7265632	2819	3
0	7268186	2820	2
0	7270649	2821	1
0	7273166	2822	2
0	7275912	2823	0
0	7278417	2824	3
0	7281037	2825	3
0	7283670	2826	0
0	7285765	2827	5
0	7288236	2828	0
0	7290559	2829	0
0	7293261	2830	0
0	7295962	2831	5
0	7298697	2832	1
0	7301387	2833	1
0	7303860	2834	0
0	7306532	2835	6
0	7309151	2836	0
0	7311885	2837	6
0	7314562	2838	2
0	7317009	2839	1
0	7319597	2840	10
0	7322043	2841	3
0	7324836	2842	0
0	7327420	2843	0
0	7329449	2844	0
0	7332186	2845	0
0	7334628	2846	0
0	7337176	2847	3
0	7339890	2848	0
0	7342325	2849	4
0	7344778	2850	2
0	7347526	2851	19
0	7350205	2852	2
0	7352679	2853	0
0	7355361	2854	0
0	7357822	2855	0
0	7360436	2856	2
0	7362995	2857	2
0	7365515	2858	9
0	7368050	2859	0
0	7370470	2860	7
0	7373035	2861	4
0	7375775	2862	1
0	7378397	2863	1
0	7381130	2864	2
0	7383720	2865	13
0	7386423	2866	2
0	7388687	2867	0
0	7391217	2868	0
0	7393792	2869	0
0	7396421	2870	6
0	7399194	2871	2
0	7401899	2872	0
0	7404399	2873	1
0	7407083	2874	4
0	7409798	2875	2
0	7412534	2876	1
0	7415151	2877	0
0	7417796	2878	0
0	7420494	2879	0
0	7423244	2880	0
0	7425682	2881	0
0	7428452	2882	8
0	7430967	2883	0
0	7433671	2884	0
0	7436352	2885	0
0	7438945	2886	0
0	7441760	2887	2
0	7444433	2888	1
0	7447100	2889	0
0	7449725	2890	1
0	7452451	2891	2
0	7454999	2892	0
0	7457666	2893	1
0	7460269	2894	0
0	7462816	2895	2
0	7465297	2896	4
0	7467821	2897	0
0	7470648	2898	0
0	7473252	2899	1
0	7475883	2900	0
0	7478500	2901	0
0	7480884	2902	3
0	7483603	2903	4
0	7486386	2904	0
0	7488938	2905	4
0	7491733	2906	4
0	7494508	2907	2
0	7497200	2908	0
0	7499540	2909	0
0	7501902	2910	0
0	7504662	2911	1
0	7507354	2912	1
0	7509740	2913	1
0	7512449	2914	0
0	7515010	2915	0
0	7517458	2916	1
0	7520013	2917	4
0	7522659	2918	2
0	7525147	2919	0
0	7527765	2920	0
0	7530443	2921	0
0	7532972	2922	0
0	7535612	2923	1
0	7537983	2924	3
0	7540874	2925	0
0	7543402	2926	0
0	7545862	2927	0
0	7548712	2928	2
0	7551491	2929	0
0	7554187	2930	2
0	7556906	2931	0
0	7559613	2932	3
0	7562034	2933	0
0	7564680	2934	0
0	7567299	2935	3
0	7570014	2936	5
0	7572629	2937	0
0	7574981	2938	9
0	7577691	2939	5
0	7580217	2940	0
0	7582719	2941	0
0	7585353	2942	0
0	7587771	2943	0
0	7590250	2944	1
0	7592766	2945	1
0	7595390	2946	4
0	7597832	2947	0
0	7600447	2948	0
0	7603301	2949	0
0	7605929	2950	5
0	7608455	2951	1
0	7610804	2952	0
0	7613176	2953	1
0	7615687	2954	4
0	7618090	2955	1
0	7620726	2956	1
0	7623153	2957	0
0	7625477	2958	0
0	7628264	2959	0
0	7630864	2960	6
0	7633434	2961	0
0	7636017	2962	2
0	7638535	2963	0
0	7641519	2964	0
0	7644253	2965	0
0	7647029	2966	0
0	7649847	2967	1
0	7652374	2968	3
0	7654883	2969	0
0	7657600	2970	10
0	7660319	2971	6
0	7663084	2972	0
0	7665560	2973	0
0	7667938	2974	5
0	7670531	2975	11
0	7673164	2976	0
0	7675733	2977	10
0	7678170	2978	1
0	7680955	2979	0
0	7683659	2980	3
0	7686408	2981	2
0	7688844	2982	0
0	7691638	2983	0
0	7694291	2984	2
0	7697028	2985	0
0	7699580	2986	1
0	7702193	2987	1
0	7704773	2988	0
0	7707198	2989	2
0	7709872	2990	7
0	7712804	2991	3
0	7715438	2992	0
0	7718126	2993	5
0	7720812	2994	0
0	7723508	2995	0
0	7726197	2996	1
0	7729024	2997	1
0	7731589	2998	0
0	7734230	2999	1
0	7736953	3000	1
0	7739162	3001	0
0	7741590	3002	0
0	7744297	3003	0
0	7746883	3004	0
0	7749512	3005	1
0	7752057	3006	0
0	7754696	3007	2
0	7757181	3008	0
0	7759780	3009	2
0	7762307	3010	0
0	7764661	3011	2
0	7767493	3012	1
0	7770296	3013	7
0	7772973	3014	3
0	7775565	3015	0
0	7778199	3016	5
0	7780916	3017	0
0	7783514	3018	1
0	7785941	3019	3
0	7788667	3020	0
0	7791343	3021	4
0	7793891	3022	0
0	7796655	3023	2
0	7799439	3024	3
0	7802161	3025	8
0	7805076	3026	6
0	7807746	3027	1
0	7810349	3028	2
0	7813151	3029	6
0	7815654	3030	2
0	7818071	3031	1
0	7820572	3032	2
0	7823415	3033	3
0	7826020	3034	4
0	7828636	3035	0
0	7831432	3036	1
0	7834069	3037	1
0	7836699	3038	0
0	7839355	3039	1
0	7841777	3040	1
0	7844398	3041	3
0	7846997	3042	0
0	7849869	3043	0
0	7852422	3044	6
0	7855116	3045	0
0	7857485	3046	0
0	7859897	3047	1
0	7862360	3048	2
0	7865006	3049	6
0	7867776	3050	1
0	7870103	3051	2
0	7872745	3052	8
0	7875372	3053	0
0	7878092	3054	2
0	7880579	3055	3
0	7883243	3056	4
0	7885856	3057	1
0	7888304	3058	2
0	7890727	3059	1
0	7893174	3060	0
0	7895657	3061	0
0	7898337	3062	2
0	7901068	3063	4
0	7903699	3064	0
0	7906097	3065	0
0	7908828	3066	4
0	7911346	3067	1
0	7913709	3068	0
0	7916374	3069	0
0	7918900	3070	0
0	7921355	3071	0
0	7924103	3072	0
0	7926547	3073	3
0	7929209	3074	3
0	7931239	3075	1
0	7934000	3076	14
0	7936582	3077	0
0	7939202	3078	2
0	7941919	3079	5
0	7944658	3080	8
0	7947344	3081	2
0	7949908	3082	1
0	7952706	3083	0
0	7955247	3084	0
0	7957912	3085	0
0	7960480	3086	1
0	7963138	3087	0
0	7965728	3088	0
0	7968039	3089	0
0	7970686	3090	2
0	7973268	3091	5
0	7975972	3092	5
0	7978697	3093	2
0	7981437	3094	1
0	7983999	3095	3
0	7986692	3096	0
0	7989328	3097	0
0	7991975	3098	10
0	7994531	3099	0
0	7997119	3100	1
0	7999579	3101	6
0	8002143	3102	1
0	8004700	3103	0
0	8007316	3104	3
0	8010015	3105	0
0	8012762	3106	0
0	8015080	3107	0
0	8017546	3108	3
0	8020071	3109	3
0	8022728	3110	0
0	8025391	3111	0
0	8028243	3112	5
0	8030552	3113	1
0	8033205	3114	7
0	8035797	3115	0
0	8038258	3116	2
0	8040698	3117	0
0	8043209	3118	6
0	8045907	3119	3
0	8048467	3120	0
0	8050907	3121	3
0	8053476	3122	4
0	8055977	3123	0
0	8058573	3124	11
0	8061223	3125	0
0	8063936	3126	3
0	8066399	3127	0
0	8069071	3128	0
0	8071697	3129	0
0	8074122	3130	1
0	8076527	3131	3
0	8078913	3132	4
0	8081129	3133	0
0	8083791	3134	3
0	8086445	3135	2
0	8089404	3136	3
0	8091900	3137	1
0	8094486	3138	0
0	8097126	3139	0
0	8099557	3140	0
0	8102012	3141	0
0	8104267	3142	0
0	8106499	3143	0
0	8109079	3144	2
0	8111602	3145	0
0	8114139	3146	2
0	8116791	3147	0
0	8119664	3148	0
0	8122322	3149	1
0	8124901	3150	0
0	8127517	3151	0
0	8130224	3152	0
0	8132791	3153	0
0	8135349	3154	0
0	8137762	3155	0
0	8140449	3156	3
0	8143293	3157	0
0	8145908	3158	0
0	8148492	3159	3
0	8151071	3160	3
0	8153937	3161	0
0	8156624	3162	2
0	8159236	3163	1
0	8161946	3164	3
0	8164763	3165	0
0	8167394	3166	0
0	8170125	3167	0
0	8172554	3168	0
0	8175154	3169	0
0	8177760	3170	2
0	8180351	3171	1
0	8182949	3172	4
0	8185438	3173	0
0	8188066	3174	0
0	8190722	3175	3
0	8193057	3176	0
0	8195939	3177	9
0	8198594	3178	0
0	8201169	3179	2
0	8203768	3180	9
0	8206326	3181	0
0	8208678	3182	0
0	8211014	3183	10
0	8213867	3184	0
0	8216595	3185	4
0	8219145	3186	0
0	8221715	3187	0
0	8224371	3188	0
0	8226857	3189	3
0	8229507	3190	1
0	8232079	3191	1
0	8234831	3192	0
0	8237670	3193	0
0	8240369	3194	2
0	8243100	3195	1
0	8245815	3196	0
0	8248467	3197	0
0	8251072	3198	3
0	8253567	3199	0
0	8256300	3200	1
0	8258733	3201	2
0	8261379	3202	6
0	8264097	3203	5
0	8266442	3204	0
0	8268918	3205	0
0	8271330	3206	0
0	8274137	3207	0
0	8276764	3208	5
0	8279218	3209	3
0	8281891	3210	0
0	8284285	3211	0
0	8286549	3212	0
0	8289143	3213	1
0	8291427	3214	3
0	8294064	3215	0
0	8296739	3216	0
0	8299312	3217	2
0	8301692	3218	4
0	8304272	3219	2
0	8307089	3220	1
0	8309557	3221	0
0	8312407	3222	3
0	8314792	3223	0
0	8317582	3224	0
0	8320271	3225	5
0	8322908	3226	1
0	8325447	3227	0
0	8328019	3228	4
0	8330330	3229	1
0	8333053	3230	11
0	8335595	3231	0
0	8338423	3232	2
0	8340976	3233	0
0	8343508	3234	0
0	8346033	3235	0
0	8348809	3236	4
0	8351269	3237	1
0	8353896	3238	0
0	8356400	3239	1
0	8358776	3240	0
0	8361335	3241	0
0	8363736	3242	0
0	8366327	3243	0
0	8368830	3244	2
0	8371326	3245	0
0	8374035	3246	0
0	8376524	3247	0
0	8379210	3248	1
0	8381659	3249	0
0	8384314	3250	0
0	8387131	3251	1
0	8389730	3252	0
0	8392448	3253	0
0	8394862	3254	2
0	8397564	3255	0
0	8400323	3256	0
0	8403066	3257	1
0	8405586	3258	0
0	8408182	3259	4
0	8410693	3260	9
0	8413334	3261	2
0	8415898	3262	5
0	8418163	3263	8
0	8420629	3264	1
0	8423465	3265	0
0	8425834	3266	0
0	8428377	3267	0
0	8431105	3268	1
0	8434021	3269	1
0	8436581	3270	3
0	8439123	3271	1
0	8441784	3272	3
0	8444499	3273	3
0	8447015	3274	1
0	8449429	3275	3
0	8452077	3276	0
0	8454466	3277	0
0	8457228	3278	7
0	8459845	3279	8
0	8462539	3280	0
0	8465106	3281	6
0	8467658	3282	0
0	8470265	3283	0
0	8472721	3284	0
0	8475044	3285	1
0	8477744	3286	1
0	8480156	3287	2
0	8482885	3288	2
0	8485641	3289	1
0	8488495	3290	0
0	8490880	3291	0
0	8493283	3292	0
0	8495991	3293	0
0	8498357	3294	1
0	8500863	3295	0
0	8503584	3296	4
0	8506031	3297	4
0	8508646	3298	7
0	8511125	3299	0
0	8513855	3300	4
0	8516621	3301	0
0	8519207	3302	3
0	8521899	3303	0
0	8524509	3304	2
0	8527015	3305	0
0	8529632	3306	1
0	8531938	3307	1
0	8534598	3308	0
0	8537027	3309	2
0	8539843	3310	0
0	8542392	3311	5
0	8545091	3312	0
0	8547800	3313	1
0	8550306	3314	0
0	8552824	3315	0
0	8555388	3316	0
0	8558006	3317	0
0	8560552	3318	0
0	8563122	3319	2
0	8565847	3320	1
0	8568461	3321	2
0	8571037	3322	0
0	8573517	3323	0
0	8576201	3324	2
0	8578869	3325	0
0	8581423	3326	0
0	8584038	3327	0
0	8586455	3328	5
0	8588858	3329	4
0	8591442	3330	2
0	8593909	3331	0
0	8596559	3332	1
0	8599175	3333	1
0	8601700	3334	0
0	8603992	3335	2
0	8606861	3336	3
0	8609473	3337	0
0	8611880	3338	5
0	8614597	3339	0
0	8617126	3340	0
0	8619743	3341	4
0	8622344	3342	0
0	8624782	3343	3
0	8627298	3344	0
0	8630064	3345	1
0	8632740	3346	12
0	8635309	3347	3
0	8638014	3348	2
0	8640632	3349	0
0	8643164	3350	0
0	8645602	3351	0
0	8648118	3352	0
0	8650776	3353	0
0	8653161	3354	3
0	8655771	3355	3
0	8658472	3356	0
0	8661101	3357	0
0	8663634	3358	2
0	8666156	3359	0
0	8668476	3360	0
0	8671143	3361	0
0	8673939	3362	0
0	8676709	3363	0
0	8679028	3364	0
0	8681419	3365	1
0	8684158	3366	0
0	8686670	3367	0
0	8689392	3368	0
0	8691933	3369	1
0	8694567	3370	0
0	8697215	3371	0
0	8699507	3372	0
0	8701979	3373	4
0	8704563	3374	0
0	8707228	3375	0
0	8709773	3376	0
0	8712243	3377	0
0	8714664	3378	0
0	8717240	3379	0
0	8719809	3380	0
0	8722597	3381	0
0	8725077	3382	0
0	8727654	3383	0
0	8730121	3384	0
0	8732702	3385	1
0	8735296	3386	0
0	8737857	3387	0
0	8740526	3388	0
0	8743140	3389	0
0	8745399	3390	4
0	8747653	3391	2
0	8750238	3392	8
0	8752888	3393	1
0	8755528	3394	0
0	8758322	3395	1
0	8760811	3396	0
0	8763304	3397	0
0	8765959	3398	2
0	8768515	3399	0
0	8771227	3400	0
0	8773873	3401	10
0	8776388	3402	0
0	8779062	3403	0
0	8781617	3404	6
0	8784248	3405	0
0	8786746	3406	0
0	8789428	3407	0
0	8791902	3408	8
0	8794719	3409	7
0	8797279	3410	0
0	8799830	3411	0
0	8802137	3412	2
0	8804680	3413	2
0	8807270	3414	10
0	8810267	3415	0
0	8813007	3416	0
0	8815657	3417	0
0	8818229	3418	0
0	8820967	3419	4
0	8823525	3420	0
0	8826301	3421	2
0	8828837	3422	0
0	8831544	3423	0
0	8834090	3424	3
0	8836632	3425	0
0	8839058	3426	1
0	8841798	3427	0
0	8844426	3428	0
0	8847035	3429	0
0	8849442	3430	2
0	8851928	3431	0
0	8854490	3432	3
0	8856904	3433	0
0	8859330	3434	2
0	8861827	3435	3
0	8864550	3436	0
0	8867019	3437	0
0	8869512	3438	0
0	8872047	3439	0
0	8874541	3440	0
0	8877013	3441	2
0	8879696	3442	0
0	8882266	3443	0
0	8884885	3444	2
0	8887514	3445	1
0	8890115	3446	1
0	8892835	3447	2
0	8895347	3448	2
0	8897683	3449	2
0	8900055	3450	5
0	8902590	3451	2
0	8905002	3452	0
0	8907613	3453	0
0	8910254	3454	6
0	8912921	3455	0
0	8915409	3456	4
0	8917993	3457	1
0	8920748	3458	0
0	8923252	3459	0
0	8925795	3460	4
0	8928156	3461	1
0	8930803	3462	0
0	8933522	3463	3
0	8936235	3464	0
0	8938711	3465	1
0	8941554	3466	1
0	8943951	3467	0
0	8946631	3468	5
0	8949261	3469	2
0	8951816	3470	3
0	8954484	3471	1
0	8957180	3472	0
0	8959664	3473	2
0	8962080	3474	0
0	8964700	3475	1
0	8967189	3476	4
0	8969652	3477	0
0	8972353	3478	0
0	8974722	3479	0
0	8977063	3480	3
0	8979626	3481	4
0	8982050	3482	1
0	8984322	3483	1
0	8986820	3484	1
0	8989469	3485	4
0	8992045	3486	5
0	8994685	3487	0
0	8997180	3488	8
0	8999648	3489	0
0	9002302	3490	0
0	9004974	3491	2
0	9007602	3492	0
0	9010097	3493	0
0	9012585	3494	14
0	9015203	3495	0
0	9017862	3496	0
0	9020341	3497	0
0	9023050	3498	0
0	9025600	3499	0
0	9028153	3500	0
0	9030624	3501	2
0	9033196	3502	0
0	9036001	3503	1
0	9038571	3504	0
0	9041181	3505	5
0	9043752	3506	0
0	9046377	3507	0
0	9048977	3508	2
0	9051772	3509	0
0	9053995	3510	0
0	9056651	3511	1
0	9059059	3512	5
0	9061844	3513	1
0	9064469	3514	0
0	9067112	3515	0
0	9069676	3516	1
0	9072426	3517	5
0	9075117	3518	1
0	9077698	3519	0
0	9080463	3520	1
0	9082865	3521	0
0	9085378	3522	0
0	9088079	3523	0
0	9090779	3524	0
0	9093388	3525	4
0	9095657	3526	0
0	9098264	3527	0
0	9101252	3528	4
0	9103825	3529	1
0	9106191	3530	0
0	9108807	3531	3
0	9111220	3532	0
0	9113709	3533	0
0	9116316	3534	1
0	9118741	3535	6
0	9121203	3536	0
0	9123774	3537	2
0	9126269	3538	0
0	9128684	3539	2
0	9131482	3540	9
0	9134216	3541	6
0	9136608	3542	0
0	9139370	3543	0
0	9141823	3544	0
0	9144391	3545	7
0	9147145	3546	11
0	9149842	3547	0
0	9152550	3548	0
0	9155325	3549	2
0	9157822	3550	0
0	9160368	3551	6
0	9163146	3552	0
0	9165533	3553	2
0	9168037	3554	0
0	9170667	3555	2
0	9173206	3556	0
0	9175733	3557	0
0	9178339	3558	0
0	9180991	3559	0
0	9183554	3560	0
0	9186119	3561	0
0	9188505	3562	1
0	9191185	3563	3
0	9193812	3564	1
0	9196418	3565	0
0	9198899	3566	6
0	9201474	3567	0
0	9203921	3568	10
0	9206608	3569	0
0	9208995	3570	0
0	9211608	3571	6
0	9214413	3572	0
0	9216867	3573	1
0	9219491	3574	0
0	9221970	3575	0
0	9224199	3576	0
0	9226758	3577	0
0	9229394	3578	7
0	9231933	3579	8
0	9234403	3580	0
0	9236995	3581	0
0	9239737	3582	0
0	9242486	3583	0
0	9245148	3584	0
0	9247933	3585	0
0	9250487	3586	0
0	9253102	3587	0
0	9255918	3588	0
0	9258655	3589	4
0	9261195	3590	6
0	9263683	3591	0
0	9266391	3592	0
0	9269018	3593	0
0	9271452	3594	1
0	9274035	3595	1
0	9276807	3596	0
0	9279078	3597	2
0	9281792	3598	0
0	9284259	3599	1
0	9286664	3600	0
0	9288961	3601	0
0	9291451	3602	2
0	9293870	3603	1
0	9296372	3604	1
0	9299058	3605	3
0	9301648	3606	0
0	9304334	3607	0
0	9307092	3608	2
0	9309721	3609	1
0	9312349	3610	0
0	9314935	3611	0
0	9317718	3612	10
0	9320031	3613	0
0	9322821	3614	4
0	9325438	3615	3
0	9328100	3616	0
0	9330793	3617	2
0	9333434	3618	0
0	9336025	3619	1
0	9338669	3620	4
0	9341335	3621	1
0	9344050	3622	4
0	9346503	3623	3
0	9349119	3624	4
0	9351511	3625	5
0	9354123	3626	4
0	9356745	3627	1
0	9359636	3628	1
0	9361878	3629	1
0	9364554	3630	0
0	9367285	3631	0
0	9369850	3632	8
0	9372280	3633	0
0	9374873	3634	9
0	9377598	3635	0
0	9380154	3636	5
0	9382749	3637	0
0	9385267	3638	0
0	9388023	3639	5
0	9390608	3640	0
0	9393078	3641	0
0	9395758	3642	0
0	9398119	3643	0
0	9400814	3644	2
0	9403306	3645	1
0	9405941	3646	0
0	9408622	3647	4
0	9411310	3648	0
0	9414176	3649	0
0	9416607	3650	0
0	9419116	3651	0
0	9421709	3652	0
0	9424342	3653	6
0	9427025	3654	10
0	9429586	3655	0
0	9431874	3656	0
0	9434284	3657	0
0	9436661	3658	5
0	9439336	3659	0
0	9442047	3660	6
0	9444134	3661	1
0	9446711	3662	0
0	9449182	3663	5
0	9451889	3664	2
0	9454434	3665	0
0	9456836	3666	1
0	9459415	3667	0
0	9462135	3668	0
0	9464786	3669	0
0	9467457	3670	0
0	9470274	3671	0
0	9472775	3672	3
0	9475444	3673	0
0	9478052	3674	0
0	9480472	3675	4
0	9482969	3676	0
0	9485190	3677	0
0	9487489	3678	2
0	9490055	3679	2
0	9492608	3680	5
0	9495480	3681	4
0	9497815	3682	2
0	9500332	3683	0
0	9502639	3684	0
0	9505277	3685	0
0	9507915	3686	0
0	9510678	3687	0
0	9513330	3688	1
0	9515779	3689	3
0	9518604	3690	7
0	9521265	3691	0
0	9523653	3692	1
0	9526050	3693	0
0	9528475	3694	1
0	9530985	3695	3
0	9533553	3696	0
0	9535977	3697	1
0	9538775	3698	0
0	9541171	3699	0
0	9543676	3700	0
0	9546396	3701	0
0	9548908	3702	3
0	9551489	3703	0
0	9554071	3704	0
0	9556650	3705	2
0	9559323	3706	2
0	9561821	3707	0
0	9564614	3708	0
0	9566934	3709	0
0	9569637	3710	5
0	9572280	3711	0
0	9574875	3712	2
0	9577408	3713	2
0	9580024	3714	0
0	9582628	3715	1
0	9585302	3716	0
0	9587897	3717	9
0	9590399	3718	0
0	9592991	3719	0
0	9595476	3720	0
0	9598121	3721	0
0	9600768	3722	0
0	9603201	3723	0
0	9605650	3724	0
0	9608342	3725	0
0	9610827	3726	3
0	9613594	3727	0
0	9616380	3728	3
0	9618926	3729	0
0	9621531	3730	1
0	9624028	3731	0
0	9626438	3732	2
0	9628996	3733	5
0	9631831	3734	2
0	9634527	3735	0
0	9636993	3736	0
0	9639592	3737	0
0	9642154	3738	0
0	9644698	3739	1
0	9647250	3740	3
0	9649735	3741	0
0	9652378	3742	3
0	9655006	3743	2
0	9657699	3744	1
0	9660370	3745	1
0	9662937	3746	6
0	9665630	3747	0
0	9667923	3748	1
0	9670465	3749	2
0	9673122	3750	0
0	9675648	3751	5
0	9678070	3752	2
0	9680720	3753	3
0	9682910	3754	4
0	9685558	3755	2
0	9688304	3756	1
0	9690869	3757	0
0	9693444	3758	2
0	9695936	3759	0
0	9698385	3760	0
0	9700920	3761	0
0	9703494	3762	3
0	9705904	3763	0
0	9708405	3764	1
0	9710822	3765	5
0	9713226	3766	7
0	9715922	3767	1
0	9718519	3768	2
0	9721284	3769	1
0	9723894	3770	2
0	9726443	3771	0
0	9728920	3772	0
0	9731487	3773	0
0	9734024	3774	8
0	9736745	3775	0
0	9739303	3776	6
0	9741921	3777	1
0	9744462	3778	3
0	9746888	3779	0
0	9749637	3780	0
0	9752294	3781	0
0	9755088	3782	0
0	9757907	3783	5
0	9760502	3784	0
0	9763078	3785	0
0	9765887	3786	8
0	9768039	3787	0
0	9770546	3788	3
0	9773023	3789	2
0	9775466	3790	5
0	9778146	3791	0
0	9780675	3792	0
0	9783261	3793	0
0	9785694	3794	0
0	9788114	3795	0
0	9790650	3796	5
0	9793599	3797	10
0	9796150	3798	0
0	9798835	3799	6
0	9801399	3800	0
0	9804008	3801	0
0	9806500	3802	0
0	9809142	3803	4
0	9811815	3804	6
0	9814403	3805	3
0	9817106	3806	4
0	9819813	3807	2
0	9822489	3808	0
0	9824964	3809	6
0	9827523	3810	1
0	9829978	3811	2
0	9832436	3812	2
0	9835081	3813	0
0	9837535	3814	0
0	9840115	3815	4
0	9842656	3816	0
0	9845230	3817	1
0	9847639	3818	2
0	9850172	3819	0
0	9852802	3820	9
0	9855040	3821	1
0	9857768	3822	0
0	9860465	3823	0
0	9862906	3824	7
0	9865297	3825	1
0	9868113	3826	0
0	9870836	3827	4
0	9873477	3828	2
0	9876328	3829	1
0	9878644	3830	0
0	9880897	3831	6
0	9883687	3832	5
0	9886369	3833	1
0	9888881	3834	0
0	9891542	3835	0
0	9894306	3836	0
0	9896934	3837	0
0	9899465	3838	5
0	9902306	3839	3
0	9904734	3840	0
0	9907133	3841	0
0	9909483	3842	0
0	9912133	3843	0
0	9914533	3844	2
0	9917201	3845	12
0	9920041	3846	4
0	9922524	3847	0
0	9925088	3848	2
0	9927600	3849	5
0	9930226	3850	0
0	9932761	3851	5
0	9935194	3852	0
0	9937837	3853	0
0	9940258	3854	0
0	9942980	3855	0
0	9945772	3856	1
0	9948251	3857	1
0	9950849	3858	0
0	9953509	3859	0
0	9956131	3860	2
0	9958879	3861	0
0	9961499	3862	0
0	9964104	3863	3
0	9966690	3864	0
0	9969239	3865	0
0	9971582	3866	0
0	9974054	3867	0
0	9976537	3868	3
0	9979191	3869	1
0	9981730	3870	0
0	9984306	3871	0
0	9986957	3872	0
0	9989440	3873	5
0	9991772	3874	0
0	9994364	3875	1
0	9996971	3876	6
0	9999484	3877	0
0	10001695	3878	0
0	10004476	3879	2
0	10006749	3880	4
0	10009668	3881	0
0	10012373	3882	0
0	10015175	3883	3
0	10017825	3884	4
0	10020112	3885	0
0	10022666	3886	0
0	10025173	3887	4
0	10027545	3888	0
0	10030098	3889	0
0	10032389	3890	0
0	10034877	3891	4
0	10037591	3892	1
0	10040170	3893	7
0	10042821	3894	1
0	10045239	3895	1
0	10048247	3896	2
0	10051026	3897	6
0	10053627	3898	0
0	10056363	3899	0
0	10058939	3900	0
0	10061528	3901	0
0	10064125	3902	0
0	10066472	3903	1
0	10068975	3904	0
0	10071603	3905	0
0	10074260	3906	0
0	10076775	3907	4
0	10079313	3908	0
0	10081914	3909	2
0	10084522	3910	12
0	10087026	3911	0
0	10089709	3912	0
0	10092067	3913	1
0	10094217	3914	0
0	10097005	3915	1
0	10099791	3916	5
0	10102511	3917	1
0	10105137	3918	4
0	10107762	3919	0
0	10110077	3920	0
0	10112968	3921	6
0	10115769	3922	0
0	10118356	3923	0
0	10121088	3924	0
0	10123696	3925	0
0	10126187	3926	0
0	10128568	3927	0
0	10131146	3928	2
0	10133824	3929	1
0	10136427	3930	1
0	10139198	3931	0
0	10141891	3932	0
0	10144508	3933	0
0	10147300	3934	5
0	10149793	3935	0
0	10152380	3936	3
0	10155168	3937	6
0	10157649	3938	1
0	10160092	3939	4
0	10162578	3940	0
0	10165028	3941	2
0	10167584	3942	3
0	10169881	3943	0
0	10172646	3944	3
0	10175281	3945	1
0	10177878	3946	0
0	10180393	3947	2
0	10183172	3948	2
0	10185582	3949	5
0	10188077	3950	2
0	10190138	3951	0
0	10192452	3952	5
0	10194839	3953	0
0	10196954	3954	0
0	10199749	3955	0
0	10202259	3956	0
0	10204988	3957	0
0	10207558	3958	7
0	10210284	3959	1
0	10212634	3960	0
0	10215195	3961	4
0	10217729	3962	0
0	10220386	3963	0
0	10222823	3964	1
0	10225400	3965	3
0	10227996	3966	0
0	10230499	3967	4
0	10233097	3968	0
0	10235777	3969	0
0	10238262	3970	2
0	10240712	3971	0
0	10243389	3972	1
0	10245894	3973	0
0	10248360	3974	0
0	10251260	3975	6
0	10253851	3976	2
0	10256395	3977	0
0	10258982	3978	4
0	10261593	3979	0
0	10264015	3980	0
0	10266578	3981	3
0	10269192	3982	0
0	10271854	3983	9
0	10274407	3984	0
0	10276850	3985	2
0	10279464	3986	0
0	10282199	3987	0
0	10284916	3988	0
0	10287491	3989	8
0	10289987	3990	2
0	10292560	3991	1
0	10295069	3992	0
0	10297792	3993	11
0	10300237	3994	0
0	10302622	3995	5
0	10305134	3996	0
0	10307719	3997	0
0	10310365	3998	0
0	10312833	3999	1
0	10315454	4000	0
1	2872	1	36
1	5671	2	49
1	7951	3	57
1	10603	4	47
1	13363	5	51
1	15941	6	35
1	18660	7	55
1	21119	8	25
1	23779	9	30
1	26343	10	27
1	28821	11	55
1	31316	12	45
1	33902	13	42
1	36479	14	43
1	38937	15	41
1	41590	16	28
1	43998	17	17
1	46699	18	18
1	49398	19	52
1	52005	20	42
1	54703	21	55
1	57380	22	39
1	60202	23	23
1	62991	24	15
1	65668	25	22
1	68454	26	22
1	71201	27	16
1	73674	28	9
1	76229	29	39
1	78829	30	41
1	81313	31	54
1	83901	32	48
1	86797	33	37
1	89560	34	42
1	92085	35	48
1	94426	36	46
1	96913	37	35
1	99608	38	26
1	102145	39	5
1	104712	40	17
1	107597	41	32
1	110022	42	33
1	112654	43	21
1	115397	44	38
1	117868	45	54
1	120492	46	49
1	123164	47	48
1	125685	48	52
1	128215	49	52
1	130694	50	41
1	133278	51	50
1	135870	52	57
1	138587	53	56
1	140977	54	57
1	143761	55	37
1	146339	56	53
1	149042	57	56
1	151696	58	47
1	154116	59	57
1	156293	60	55
1	158679	61	51
1	161379	62	40
1	164114	63	38
1	166727	64	24
1	169379	65	29
1	172236	66	18
1	174711	67	26
1	177319	68	10
1	179795	69	17
1	182441	70	50
1	185112	71	30
1	187577	72	39
1	190089	73	49
1	192632	74	39
1	195180	75	49
1	197764	76	50
1	200601	77	51
1	203148	78	55
1	205740	79	42
1	208065	80	55
1	210758	81	57
1	213680	82	38
1	216270	83	29
1	218744	84	20
1	221212	85	34
1	223845	86	40
1	226604	87	35
1	229089	88	23
1	231619	89	56
1	234170	90	28
1	236781	91	51
1	239094	92	48
1	241611	93	43
1	244504	94	42
1	247061	95	53
1	249818	96	29
1	252643	97	32
1	255324	98	49
1	257850	99	52
1	260548	100	43
1	263022	101	22
1	265668	102	31
1	268370	103	42
1	270808	104	33
1	273460	105	2
1	275954	106	0
1	278204	107	7
1	280852	108	4
1	283055	109	14
1	285623	110	5
1	288299	111	17
1	290855	112	37
1	293452	113	35
1	295976	114	54
1	298499	115	48
1	300903	116	50
1	303585	117	58
1	305983	118	51
1	308636	119	57
1	311114	120	57
1	313563	121	56
1	316111	122	49
1	318849	123	55
1	321567	124	33
1	324247	125	51
1	326812	126	48
1	329582	127	46
1	331990	128	52
1	334484	129	54
1	336894	130	50
1	339599	131	53
1	342300	132	42
1	344911	133	53
1	347338	134	56
1	349876	135	54
1	352472	136	45
1	355137	137	36
1	357870	138	25
1	360517	139	28
1	363109	140	23
1	365455	141	23
1	368166	142	16
1	370784	143	29
1	373392	144	40
1	376070	145	19
1	378606	146	14
1	381120	147	15
1	383531	148	10
1	386146	149	8
1	388701	150	24
1	391498	151	24
1	394080	152	29
1	396922	153	31
1	399596	154	23
1	402282	155	45
1	404862	156	52
1	407458	157	33
1	409981	158	38
1	412625	159	35
1	415273	160	28
1	418005	161	35
1	420519	162	45
1	423042	163	25
1	425656	164	24
1	428273	165	42
1	430788	166	47
1	433277	167	19
1	435945	168	18
1	438090	169	5
1	440699	170	3
1	442946	171	5
1	445368	172	5
1	447398	173	2
1	449905	174	3
1	452522	175	11
1	455091	176	22
1	457864	177	9
1	460670	178	17
1	463288	179	15
1	465857	180	0
1	468337	181	15
1	471043	182	30
1	474014	183	38
1	476461	184	40
1	478997	185	55
1	481616	186	50
1	484214	187	39
1	486845	188	32
1	489587	189	16
1	492362	190	6
1	495061	191	10
1	498069	192	28
1	500578	193	16
1	503121	194	17
1	505759	195	22
1	508294	196	13
1	510889	197	14
1	513430	198	23
1	516116	199	24
1	518746	200	32
1	521098	201	23
1	523691	202	33
1	526336	203	56
1	529033	204	45
1	531719	205	26
1	534437	206	22
1	537058	207	28
1	539621	208	53
1	542158	209	40
1	544674	210	42
1	547136	211	38
1	549752	212	50
1	552033	213	39
1	554687	214	52
1	557125	215	55
1	559790	216	45
1	562460	217	33
1	565103	218	39
1	567633	219	35
1	570109	220	50
1	572459	221	45
1	575175	222	50
1	577698	223	22
1	580050	224	11
1	582643	225	19
1	585039	226	1
1	587706	227	12
1	590171	228	6
1	592486	229	14
1	594858	230	1
1	597102	231	0
1	599503	232	2
1	602105	233	9
1	604523	234	4
1	606930	235	2
1	609371	236	9
1	611887	237	29
1	614729	238	30
1	617212	239	27
1	619836	240	37
1	622236	241	58
1	624755	242	50
1	627169	243	43
1	629586	244	56
1	632236	245	54
1	634786	246	41
1	637263	247	36
1	639852	248	37
1	642515	249	33
1	645378	250	21
1	648006	251	52
1	650560	252	43
1	653249	253	27
1	655995	254	49
1	658539	255	56
1	661114	256	44
1	663691	257	45
1	666226	258	46
1	669055	259	30
1	671465	260	45
1	674132	261	31
1	676768	262	19
1	679174	263	26
1	681471	264	1
1	683752	265	1
1	686160	266	7
1	688866	267	42
1	691605	268	52
1	694032	269	48
1	696482	270	47
1	698935	271	54
1	701415	272	40
1	703941	273	34
1	706749	274	16
1	709567	275	15
1	712162	276	30
1	714706	277	14
1	717393	278	3
1	720189	279	8
1	722803	280	19
1	725523	281	20
1	728170	282	35
1	730886	283	42
1	733632	284	32
1	736174	285	54
1	738712	286	38
1	741387	287	53
1	744066	288	43
1	746483	289	28
1	749014	290	22
1	751295	291	11
1	753743	292	1
1	756229	293	3
1	758811	294	3
1	761568	295	10
1	764308	296	2
1	766678	297	11
1	769539	298	1
1	771518	299	3
1	774101	300	7
1	776751	301	20
1	779484	302	28
1	781992	303	31
1	784656	304	16
1	787508	305	37
1	790151	306	34
1	792823	307	34
1	795377	308	25
1	797912	309	34
1	800546	310	44
1	803248	311	52
1	805492	312	48
1	807982	313	53
1	810574	314	52
1	813347	315	9
1	815899	316	15
1	818354	317	2
1	820884	318	13
1	823594	319	52
1	826084	320	50
1	828749	321	52
1	831334	322	36
1	834156	323	23
1	836857	324	30
1	839691	325	28
1	842318	326	0
1	844418	327	0
1	846587	328	22
1	849323	329	39
1	851977	330	24
1	854691	331	5
1	857521	332	36
1	860309	333	35
1	862896	334	41
1	865606	335	49
1	868238	336	51
1	870897	337	46
1	873493	338	44
1	876093	339	41
1	878844	340	55
1	881420	341	53
1	883925	342	49
1	886480	343	59
1	889056	344	57
1	891815	345	33
1	894446	346	42
1	896957	347	59
1	899643	348	56
1	902033	349	56
1	904457	350	46
1	907015	351	50
1	909549	352	47
1	912107	353	35
1	914596	354	53
1	917244	355	36
1	920083	356	23
1	922526	357	18
1	925106	358	29
1	927729	359	50
1	930222	360	14
1	932915	361	15
1	935465	362	7
1	937949	363	1
1	940441	364	7
1	943250	365	18
1	945887	366	21
1	948301	367	6
1	950570	368	12
1	953119	369	26
1	955831	370	49
1	958642	371	27
1	961272	372	22
1	964018	373	0
1	966521	374	14
1	969248	375	36
1	971913	376	42
1	974572	377	38
1	977085	378	51
1	979619	379	42
1	982645	380	35
1	985239	381	25
1	988151	382	36
1	990759	383	24
1	993363	384	45
1	995953	385	43
1	998623	386	40
1	1001117	387	30
1	1003664	388	37
1	1006141	389	37
1	1008699	390	32
1	1011243	391	42
1	1013760	392	56
1	1016266	393	43
1	1018981	394	39
1	1021626	395	53
1	1024065	396	55
1	1026532	397	56
1	1029089	398	41
1	1031891	399	31
1	1034261	400	46
1	1036806	401	39
1	1039299	402	56
1	1041902	403	48
1	1044512	404	29
1	1047182	405	39
1	1049903	406	33
1	1052378	407	33
1	1054899	408	44
1	1057521	409	50
1	1060202	410	54
1	1062732	411	52
1	1065390	412	33
1	1068048	413	13
1	1070243	414	8
1	1072584	415	20
1	1075112	416	18
1	1077716	417	18
1	1080333	418	26
1	1082914	419	44
1	1085494	420	46
1	1088169	421	45
1	1090793	422	36
1	1093498	423	42
1	1096018	424	21
1	1098653	425	23
1	1101333	426	15
1	1103658	427	3
1	1106151	428	13
1	1108919	429	22
1	1111592	430	25
1	1114426	431	29
1	1117220	432	14
1	1119803	433	6
1	1122054	434	0
1	1124492	435	0
1	1126992	436	2
1	1129277	437	0
1	1131424	438	3
1	1134099	439	10
1	1136578	440	13
1	1139180	441	4
1	1141566	442	0
1	1144000	443	15
1	1146481	444	15
1	1149115	445	2
1	1151813	446	1
1	1154478	447	8
1	1156987	448	15
1	1159414	449	4
1	1162145	450	9
1	1164789	451	18
1	1167543	452	44
1	1169898	453	26
1	1172382	454	22
1	1175053	455	34
1	1177810	456	43
1	1180112	457	46
1	1182906	458	46
1	1185468	459	52
1	1188128	460	46
1	1190770	461	29
1	1193448	462	11
1	1196124	463	19
1	1198466	464	18
1	1201122	465	18
1	1203595	466	2
1	1205800	467	3
1	1208435	468	19
1	1210867	469	8
1	1213602	470	34
1	1216301	471	30
1	1218920	472	46
1	1221431	473	40
1	1224087	474	43
1	1226533	475	53
1	1229177	476	46
1	1232001	477	50
1	1234496	478	27
1	1237184	479	41
1	1239818	480	57
1	1242298	481	49
1	1244704	482	54
1	1247331	483	40
1	1250069	484	48
1	1252768	485	54
1	1255288	486	38
1	1257907	487	31
1	1260420	488	37
1	1262970	489	34
1	1265700	490	19
1	1268349	491	45
1	1271079	492	20
1	1273831	493	18
1	1276302	494	35
1	1278853	495	58
1	1281516	496	45
1	1283804	497	58
1	1286124	498	59
1	1288693	499	54
1	1291343	500	46
1	1293855	501	25
1	1296353	502	2
1	1298746	503	10
1	1301201	504	19
1	1303732	505	22
1	1306353	506	38
1	1308915	507	47
1	1311853	508	31
1	1314606	509	19
1	1317099	510	14
1	1319696	511	16
1	1322340	512	9
1	1324760	513	18
1	1327577	514	41
1	1330173	515	34
1	1332665	516	45
1	1335169	517	57
1	1338078	518	51
1	1340598	519	24
1	1343256	520	12
1	1345988	521	57
1	1348534	522	40
1	1351009	523	45
1	1353478	524	37
1	1356070	525	30
1	1358860	526	35
1	1361376	527	46
1	1363900	528	55
1	1366338	529	33
1	1369099	530	50
1	1371924	531	46
1	1374753	532	44
1	1377190	533	57
1	1379618	534	53
1	1382194	535	57
1	1384682	536	50
1	1387348	537	32
1	1389857	538	15
1	1392587	539	26
1	1394955	540	20
1	1397890	541	36
1	1400643	542	37
1	1403176	543	24
1	1405641	544	20
1	1408494	545	13
1	1411258	546	8
1	1413735	547	47
1	1416262	548	47
1	1419005	549	47
1	1421544	550	40
1	1423976	551	50
1	1426650	552	51
1	1429223	553	51
1	1431826	554	33
1	1434395	555	42
1	1436848	556	52
1	1439458	557	37
1	1442155	558	33
1	1444796	559	21
1	1447307	560	23
1	1449853	561	12
1	1452426	562	12
1	1455149	563	34
1	1457661	564	38
1	1460076	565	36
1	1462607	566	51
1	1464979	567	44
1	1467737	568	45
1	1470683	569	34
1	1473297	570	42
1	1475983	571	29
1	1478628	572	50
1	1481205	573	43
1	1483781	574	40
1	1486486	575	28
1	1489139	576	26
1	1491797	577	45
1	1494124	578	30
1	1496659	579	8
1	1499037	580	1
1	1501538	581	10
1	1504337	582	26
1	1507090	583	41
1	1509669	584	44
1	1512367	585	50
1	1514735	586	41
1	1517100	587	56
1	1519570	588	47
1	1522133	589	49
1	1524787	590	58
1	1527157	591	54
1	1529855	592	45
1	1532302	593	52
1	1534882	594	47
1	1537570	595	49
1	1540043	596	25
1	1542612	597	48
1	1545218	598	50
1	1547745	599	44
1	1550306	600	57
1	1552786	601	35
1	1555452	602	29
1	1558030	603	46
1	1560716	604	24
1	1563271	605	31
1	1565941	606	7
1	1568554	607	27
1	1571001	608	12
1	1573446	609	24
1	1575890	610	54
1	1578739	611	57
1	1581258	612	45
1	1583906	613	35
1	1586407	614	23
1	1588953	615	37
1	1591541	616	42
1	1593903	617	39
1	1596402	618	35
1	1599034	619	33
1	1601424	620	50
1	1603817	621	44
1	1606275	622	41
1	1609254	623	50
1	1611874	624	47
1	1614155	625	50
1	1616687	626	37
1	1619303	627	20
1	1622121	628	37
1	1624746	629	26
1	1627348	630	16
1	1629808	631	48
1	1632142	632	56
1	1634694	633	50
1	1637213	634	54
1	1639643	635	41
1	1642324	636	40
1	1645179	637	49
1	1647823	638	48
1	1650246	639	45
1	1652801	640	48
1	1655713	641	36
1	1658705	642	57
1	1661165	643	55
1	1663744	644	56
1	1666252	645	43
1	1668873	646	52
1	1671214	647	8
1	1674041	648	19
1	1676599	649	13
1	1679028	650	14
1	1681399	651	29
1	1684147	652	30
1	1686747	653	12
1	1689066	654	0
1	1691571	655	19
1	1694215	656	32
1	1696774	657	36
1	1699490	658	38
1	1701872	659	38
1	1704315	660	57
1	1706752	661	56
1	1709222	662	57
1	1711834	663	49
1	1714390	664	33
1	1716996	665	51
1	1719409	666	52
1	1721875	667	26
1	1724541	668	42
1	1727177	669	24
1	1729890	670	27
1	1732320	671	51
1	1734855	672	38
1	1737499	673	26
1	1740194	674	1
1	1742635	675	16
1	1745137	676	42
1	1747695	677	20
1	1750418	678	9
1	1753055	679	34
1	1755576	680	53
1	1758212	681	44
1	1760814	682	45
1	1763134	683	45
1	1765897	684	45
1	1768441	685	42
1	1770786	686	38
1	1773339	687	33
1	1775790	688	32
1	1778434	689	53
1	1781052	690	56
1	1783710	691	58
1	1786289	692	43
1	1788641	693	48
1	1791270	694	39
1	1794113	695	28
1	1796822	696	20
1	1799431	697	33
1	1801897	698	7
1	1804364	699	34
1	1807056	700	30
1	1809625	701	42
1	1812072	702	52
1	1814469	703	40
1	1817078	704	27
1	1819796	705	40
1	1822563	706	54
1	1825018	707	58
1	1827438	708	44
1	1830009	709	47
1	1832757	710	44
1	1835571	711	41
1	1838267	712	13
1	1840826	713	9
1	1843420	714	17
1	1845903	715	0
1	1848682	716	29
1	1851350	717	52
1	1853861	718	40
1	1856476	719	37
1	1859042	720	25
1	1861687	721	22
1	1864371	722	53
1	1866737	723	50
1	1869402	724	44
1	1871996	725	59
1	1874470	726	55
1	1876975	727	32
1	1879570	728	48
1	1882359	729	38
1	1884930	730	31
1	1887419	731	50
1	1889974	732	57
1	1892323	733	59
1	1894893	734	50
1	1897541	735	45
1	1900147	736	44
1	1902861	737	48
1	1905459	738	56
1	1908085	739	55
1	1910369	740	47
1	1912863	741	39
1	1915428	742	42
1	1918029	743	36
1	1920519	744	56
1	1923071	745	42
1	1925611	746	28
1	1928193	747	26
1	1930503	748	0
1	1933000	749	11
1	1935722	750	24
1	1938213	751	15
1	1940754	752	8
1	1943319	753	36
1	1945757	754	49
1	1948275	755	41
1	1951147	756	56
1	1953570	757	31
1	1956068	758	12
1	1958667	759	20
1	1961093	760	0
1	1963467	761	2
1	1966038	762	10
1	1968536	763	21
1	1971052	764	36
1	1973681	765	24
1	1976079	766	38
1	1978586	767	45
1	1981053	768	38
[...]
2	9695938	3759	12
2	9698387	3760	21
2	9700922	3761	13
2	9703496	3762	29
2	9705906	3763	45
2	9708407	3764	52
2	9710824	3765	51
2	9713228	3766	43
2	9715924	3767	50
2	9718521	3768	42
2	9721286	3769	44
2	9723896	3770	49
2	9726445	3771	40
2	9728922	3772	45
2	9731489	3773	49
2	9734026	3774	32
2	9736747	3775	30
2	9739305	3776	2
2	9741923	3777	2
2	9744464	3778	0
2	9746890	3779	20
2	9749639	3780	37
2	9752296	3781	35
2	9755090	3782	26
2	9757909	3783	13
2	9760504	3784	7
2	9763080	3785	16
2	9765889	3786	1
2	9768041	3787	7
2	9770548	3788	9
2	9773025	3789	0
2	9775468	3790	3
2	9778148	3791	18
2	9780677	3792	52
2	9783263	3793	46
2	9785696	3794	37
2	9788116	3795	14
2	9790652	3796	5
2	9793601	3797	4
2	9796152	3798	22
2	9798837	3799	14
2	9801401	3800	46
2	9804010	3801	50
2	9806502	3802	17
2	9809144	3803	34
2	9811817	3804	10
2	9814405	3805	34
2	9817108	3806	35
2	9819815	3807	33
2	9822491	3808	33
2	9824966	3809	34
2	9827525	3810	50
2	9829980	3811	56
2	9832438	3812	33
2	9835083	3813	32
2	9837537	3814	51
2	9840117	3815	48
2	9842658	3816	21
2	9845232	3817	28
2	9847641	3818	18
2	9850174	3819	17
2	9852804	3820	12
2	9855042	3821	8
2	9857770	3822	9
2	9860467	3823	6
2	9862908	3824	1
2	9865299	3825	19
2	9868115	3826	43
2	9870838	3827	29
2	9873479	3828	13
2	9876330	3829	4
2	9878646	3830	1
2	9880899	3831	0
2	9883689	3832	8
2	9886371	3833	10
2	9888883	3834	9
2	9891544	3835	6
2	9894308	3836	2
2	9896936	3837	13
2	9899467	3838	21
2	9902308	3839	5
2	9904736	3840	0
2	9907135	3841	3
2	9909485	3842	6
2	9912135	3843	15
2	9914535	3844	3
2	9917203	3845	6
2	9920043	3846	12
2	9922526	3847	13
2	9925090	3848	10
2	9927602	3849	23
2	9930228	3850	36
2	9932763	3851	48
2	9935196	3852	51
2	9937839	3853	59
2	9940260	3854	53
2	9942982	3855	45
2	9945774	3856	41
2	9948253	3857	40
2	9950851	3858	28
2	9953511	3859	36
2	9956133	3860	15
2	9958881	3861	14
2	9961501	3862	31
2	9964106	3863	10
2	9966692	3864	23
2	9969241	3865	19
2	9971584	3866	0
2	9974056	3867	12
2	9976539	3868	22
2	9979193	3869	56
2	9981732	3870	43
2	9984308	3871	47
2	9986959	3872	46
2	9989442	3873	43
2	9991774	3874	44
2	9994366	3875	48
2	9996973	3876	50
2	9999486	3877	38
2	10001697	3878	53
2	10004478	3879	41
2	10006751	3880	38
2	10009670	3881	48
2	10012375	3882	28
2	10015177	3883	7
2	10017827	3884	0
2	10020114	3885	20
2	10022668	3886	5
2	10025175	3887	4
2	10027547	3888	1
2	10030100	3889	2
2	10032391	3890	7
2	10034879	3891	20
2	10037593	3892	42
2	10040172	3893	33
2	10042823	3894	7
2	10045241	3895	13
2	10048249	3896	6
2	10051028	3897	8
2	10053629	3898	31
2	10056365	3899	0
2	10058941	3900	14
2	10061530	3901	0
2	10064127	3902	2
2	10066474	3903	0
2	10068977	3904	12
2	10071605	3905	16
2	10074262	3906	0
2	10076777	3907	13
2	10079315	3908	31
2	10081916	3909	41
2	10084524	3910	39
2	10087028	3911	36
2	10089711	3912	18
2	10092069	3913	0
2	10094219	3914	11
2	10097007	3915	39
2	10099793	3916	49
2	10102513	3917	24
2	10105139	3918	19
2	10107764	3919	10
2	10110079	3920	4
2	10112970	3921	3
2	10115771	3922	12
2	10118358	3923	6
2	10121090	3924	6
2	10123698	3925	5
2	10126189	3926	11
2	10128570	3927	13
2	10131148	3928	21
2	10133826	3929	21
2	10136429	3930	37
2	10139200	3931	40
2	10141893	3932	40
2	10144510	3933	32
2	10147302	3934	3
2	10149795	3935	5
2	10152382	3936	25
2	10155170	3937	0
2	10157651	3938	13
2	10160094	3939	1
2	10162580	3940	2
2	10165030	3941	2
2	10167586	3942	9
2	10169883	3943	11
2	10172648	3944	29
2	10175283	3945	14
2	10177880	3946	3
2	10180395	3947	6
2	10183174	3948	7
2	10185584	3949	0
2	10188079	3950	1
2	10190140	3951	1
2	10192454	3952	0
2	10194841	3953	0
2	10196956	3954	17
2	10199751	3955	9
2	10202261	3956	5
2	10204990	3957	28
2	10207560	3958	19
2	10210286	3959	14
2	10212636	3960	18
2	10215197	3961	26
2	10217731	3962	22
2	10220388	3963	2
2	10222825	3964	23
2	10225402	3965	15
2	10227998	3966	10
2	10230501	3967	23
2	10233099	3968	24
2	10235779	3969	20
2	10238264	3970	14
2	10240714	3971	21
2	10243391	3972	27
2	10245896	3973	11
2	10248362	3974	3
2	10251262	3975	10
2	10253853	3976	15
2	10256397	3977	3
2	10258984	3978	14
2	10261595	3979	16
2	10264017	3980	0
2	10266580	3981	11
2	10269194	3982	0
2	10271856	3983	0
2	10274409	3984	21
2	10276852	3985	31
2	10279466	3986	2
2	10282201	3987	17
2	10284918	3988	21
2	10287493	3989	2
2	10289989	3990	5
2	10292562	3991	2
2	10295071	3992	7
2	10297794	3993	5
2	10300239	3994	1
2	10302624	3995	11
2	10305136	3996	2
2	10307721	3997	7
2	10310367	3998	16
2	10312835	3999	0
2	10315456	4000	0
3	13361	5	1090
3	26341	10	1064
3	38935	15	982
3	52003	20	1084
3	65666	25	1103
3	78827	30	1095
3	92083	35	1146
3	104710	40	967
3	117866	45	1084
3	130692	50	996
3	143759	55	1051
3	156291	60	1000
3	169377	65	1052
3	182439	70	1078
3	195178	75	1031
3	208063	80	1027
3	221210	85	1037
3	234168	90	1028
3	247059	95	1043
3	260546	100	1115
3	273458	105	1028
3	285621	110	965
3	298497	115	1006
3	311112	120	1053
3	324245	125	1057
3	336892	130	1055
3	349874	135	1090
3	363107	140	1043
3	376068	145	1025
3	388699	150	959
3	402280	155	1117
3	415271	160	1059
3	428271	165	1032
3	440697	170	1026
3	452520	175	895
3	465855	180	1125
3	478995	185	1088
3	492360	190	1121
3	505757	195	1093
3	518744	200	1017
3	531717	205	1017
3	544672	210	1025
3	557123	215	957
3	570107	220	1072
3	582641	225	1028
3	594856	230	931
3	606928	235	964
3	619834	240	1050
3	632234	245	994
3	645376	250	1092
3	658537	255	1049
3	671463	260	1034
3	683750	265	965
3	696480	270	1000
3	709565	275	1111
3	722801	280	1048
3	736172	285	1077
3	749012	290	1016
3	761566	295	1008
3	774099	300	1011
3	787506	305	1133
3	800544	310	1086
3	813345	315	1065
3	826082	320	1033
3	839689	325	1133
3	851975	330	996
3	865604	335	1139
3	878842	340	1080
3	891813	345	1047
3	904455	350	1042
3	917242	355	1083
3	930220	360	1052
3	943248	365	1054
3	955829	370	987
3	969246	375	1091
3	982643	380	1101
3	995951	385	1082
3	1008697	390	1054
3	1021624	395	1035
3	1034259	400	1083
3	1047180	405	1053
3	1060200	410	1100
3	1072582	415	974
3	1085492	420	1012
3	1098651	425	1061
3	1111590	430	1045
3	1124490	435	1048
3	1136576	440	984
3	1149113	445	1037
3	1162143	450	1138
3	1175051	455	1074
3	1188126	460	1069
3	1201120	465	1028
3	1213600	470	1020
3	1226531	475	1083
3	1239816	480	1085
3	1252766	485	1026
3	1265698	490	1024
3	1278851	495	1095
3	1291341	500	998
3	1303730	505	959
3	1317097	510	1029
3	1330171	515	1054
3	1343254	520	1063
3	1356068	525	1010
3	1369097	530	1115
3	1382192	535	1029
3	1394953	540	1073
3	1408492	545	1205
3	1421542	550	1082
3	1434393	555	997
3	1447305	560	1050
3	1460074	565	1011
3	1473295	570	1129
3	1486484	575	1079
3	1499035	580	995
3	1512365	585	1110
3	1524785	590	984
3	1537568	595	1015
3	1550304	600	1018
3	1563269	605	1057
3	1575888	610	1005
3	1588951	615	1055
3	1601422	620	961
3	1614153	625	1051
3	1627346	630	1047
3	1639641	635	1007
3	1652799	640	1108
3	1666250	645	1137
3	1679026	650	1042
3	1691569	655	971
3	1704313	660	1026
3	1716994	665	1039
3	1729888	670	1016
3	1742633	675	1013
3	1755574	680	1065
3	1768439	685	1057
3	1781050	690	969
3	1794111	695	1103
3	1807054	700	1017
3	1819794	705	1042
3	1832755	710	1045
3	1845901	715	1114
3	1859040	720	1057
3	1871994	725	1042
3	1884928	730	994
3	1897539	735	1047
3	1910367	740	1040
3	1923069	745	1020
3	1935720	750	987
3	1948273	755	995
3	1961091	760	1044
3	1973679	765	968
3	1986033	770	950
3	1998735	775	1024
3	2011557	780	1050
3	2025011	785	1114
3	2037569	790	996
3	2051046	795	1145
3	2063150	800	914
3	2076114	805	1060
3	2089114	810	1062
3	2102300	815	1044
3	2115379	820	1079
3	2127966	825	975
3	2141083	830	1057
3	2154228	835	1057
3	2167140	840	1054
3	2180177	845	1069
3	2192851	850	1030
3	2205093	855	946
3	2218122	860	1069
3	2230880	865	1036
3	2244240	870	1104
3	2256761	875	1005
3	2269697	880	1024
3	2282497	885	1068
3	2296137	890	1154
3	2308772	895	1031
3	2321826	900	1056
3	2335008	905	1080
3	2347854	910	1066
3	2361061	915	1057
3	2374206	920	1007
3	2386777	925	989
3	2399537	930	1042
3	2412231	935	1034
3	2424806	940	1019
3	2437282	945	990
3	2449970	950	1034
3	2462415	955	945
3	2475232	960	1037
3	2488195	965	1031
3	2501166	970	1009
3	2513822	975	1020
3	2526514	980	1016
3	2539477	985	1043
3	2552813	990	1078
3	2565133	995	1028
3	2577783	1000	1016
3	2590549	1005	1044
3	2603919	1010	1120
3	2616800	1015	1049
3	2629770	1020	1054
3	2642329	1025	973
3	2655088	1030	1023
3	2667661	1035	1051
3	2680325	1040	1024
3	2693148	1045	1099
3	2706137	1050	1033
3	2718659	1055	986
3	2731550	1060	1011
3	2744095	1065	983
3	2757234	1070	1045
3	2770047	1075	1043
3	2783036	1080	1059
3	2795799	1085	1067
3	2808209	1090	956
3	2821124	1095	1053
3	2833818	1100	1066
3	2847060	1105	1096
3	2860771	1110	1113
3	2873553	1115	996
3	2886169	1120	998
3	2899454	1125	1117
3	2912850	1130	1060
3	2925314	1135	976
3	2938579	1140	1115
3	2951865	1145	1044
3	2964565	1150	1026
3	2977640	1155	1047
3	2990879	1160	1155
3	3004093	1165	1056
3	3016908	1170	1071
3	3029312	1175	1004
3	3042245	1180	1055
3	3055273	1185	1024
3	3067913	1190	1026
3	3080659	1195	972
3	3093367	1200	1020
3	3106290	1205	1009
3	3119153	1210	1065
3	3132362	1215	1065
3	3145103	1220	1027
3	3158023	1225	1068
3	3170372	1230	997
3	3183376	1235	1076
3	3196165	1240	1059
3	3209485	1245	1108
3	3221266	1250	953
3	3233784	1255	968
3	3247052	1260	1086
3	3260293	1265	1095
3	3273994	1270	1133
3	3286428	1275	990
3	3299649	1280	1023
3	3312706	1285	1079
3	3325576	1290	994
3	3338562	1295	1100
3	3351340	1300	1024
3	3364700	1305	1168
3	3377816	1310	1046
3	3390492	1315	1050
3	3403636	1320	1106
3	3416732	1325	1034
3	3429899	1330	1111
3	3443051	1335	1058
3	3456352	1340	1133
3	3468974	1345	946
3	3481722	1350	1062
3	3494545	1355	1069
3	3507337	1360	1048
3	3519798	1365	989
3	3532418	1370	998
3	3545013	1375	1033
3	3558050	1380	999
3	3570672	1385	1002
3	3582929	1390	971
3	3596215	1395	1068
3	3609116	1400	1083
3	3621496	1405	1018
3	3634515	1410	1043
3	3647178	1415	1015
3	3660376	1420	1062
3	3673515	1425	1089
3	3686636	1430	1095
3	3699490	1435	1006
3	3712394	1440	992
3	3725993	1445	1083
3	3738783	1450	978
3	3751777	1455	1036
3	3764483	1460	1034
3	3777599	1465	1096
3	3790802	1470	1115
3	3803484	1475	1032
3	3816222	1480	1028
3	3828902	1485	1048
3	3841760	1490	1026
3	3854361	1495	1005
3	3866933	1500	978
3	3879969	1505	1086
3	3893193	1510	1076
3	3905780	1515	1009
3	3918692	1520	1060
3	3931519	1525	1023
3	3944059	1530	970
3	3956535	1535	1014
3	3969868	1540	1031
3	3982861	1545	1073
3	3995638	1550	1015
3	4008331	1555	983
3	4021327	1560	1082
3	4034356	1565	1021
3	4047077	1570	989
3	4059856	1575	989
3	4072743	1580	1053
3	4085579	1585	1066
3	4098738	1590	1075
3	4111401	1595	1013
3	4124258	1600	1043
3	4136819	1605	983
3	4149736	1610	1043
3	4162849	1615	1057
3	4175489	1620	970
3	4188353	1625	1004
3	4201333	1630	1004
3	4214136	1635	1071
3	4226973	1640	1023
3	4240425	1645	1128
3	4253116	1650	1025
3	4265895	1655	1041
3	4279371	1660	1160
3	4292090	1665	1017
3	4305250	1670	1092
3	4317833	1675	983
3	4330507	1680	1052
3	4343648	1685	1039
3	4356785	1690	1067
3	4370010	1695	1057
3	4383054	1700	1088
3	4396148	1705	1050
3	4409555	1710	1111
3	4422260	1715	987
3	4435029	1720	1063
3	4448314	1725	1061
3	4461111	1730	1007
3	4473534	1735	1007
3	4486964	1740	1094
3	4500155	1745	1085
3	4513032	1750	1017
3	4525363	1755	1005
3	4537801	1760	1004
3	4550773	1765	1022
3	4563405	1770	1038
3	4575823	1775	956
3	4589073	1780	1096
3	4602050	1785	987
3	4615140	1790	1054
3	4628344	1795	1048
3	4641113	1800	1073
3	4654665	1805	1156
3	4667520	1810	1021
3	4680243	1815	1059
3	4693381	1820	1064
3	4706200	1825	1007
3	4719477	1830	1027
3	4732350	1835	1049
3	4744712	1840	1000
3	4757307	1845	1025
3	4770346	1850	1077
3	4783703	1855	1081
3	4796352	1860	983
3	4809838	1865	1118
3	4822898	1870	1086
3	4835442	1875	952
3	4847882	1880	1014
3	4860998	1885	1082
3	4874314	1890	1152
3	4887490	1895	1044
3	4900655	1900	1093
3	4912946	1905	963
3	4925554	1910	1052
3	4939192	1915	1158
3	4952444	1920	1030
3	4965128	1925	984
3	4977997	1930	1061
3	4991008	1935	1081
3	5003029	1940	995
3	5015785	1945	976
3	5028708	1950	1055
3	5041614	1955	1028
3	5054794	1960	1090
3	5067204	1965	1032
3	5079929	1970	1039
3	5092776	1975	1063
3	5105919	1980	1075
3	5118510	1985	1045
3	5131166	1990	1002
3	5143782	1995	986
3	5157446	2000	1208
3	5170135	2005	1003
3	5182644	2010	973
3	5195626	2015	1048
3	5208394	2020	992
3	5221149	2025	1037
3	5234185	2030	1014
3	5247526	2035	1089
3	5260182	2040	1006
3	5273712	2045	1104
3	5287150	2050	1104
3	5299726	2055	1024
3	5312733	2060	1041
3	5326041	2065	1072
3	5339074	2070	1061
3	5351842	2075	1004
3	5364463	2080	1043
3	5377677	2085	1104
3	5390404	2090	1043
3	5403945	2095	1079
3	5416935	2100	1032
3	5429798	2105	1079
3	5443136	2110	1116
3	5456206	2115	1064
3	5468750	2120	1008
3	5481697	2125	1027
3	5494199	2130	976
3	5507175	2135	1050
3	5519890	2140	1019
3	5532673	2145	1017
3	5545773	2150	1010
3	5558882	2155	1053
3	5571538	2160	1016
3	5583459	2165	897
3	5596496	2170	1043
3	5609076	2175	992
3	5622072	2180	1052
3	5635017	2185	1043
3	5648031	2190	1008
3	5660661	2195	1018
3	5673712	2200	1073
3	5686814	2205	1068
3	5699657	2210	1051
3	5713046	2215	1135
3	5726286	2220	1098
3	5739040	2225	1028
3	5751986	2230	1076
3	5765072	2235	1070
3	5777864	2240	1016
3	5790495	2245	1011
3	5803813	2250	1106
3	5816514	2255	1023
3	5829024	2260	986
3	5842619	2265	1135
3	5855231	2270	1010
3	5867657	2275	1014
3	5880359	2280	982
3	5893147	2285	1034
3	5905671	2290	1014
3	5919053	2295	1090
3	5932185	2300	1074
3	5944411	2305	988
3	5956927	2310	974
3	5969448	2315	995
3	5982466	2320	1044
3	5995435	2325	1027
3	6008749	2330	1126
3	6021642	2335	1031
3	6034694	2340	1014
3	6047838	2345	1090
3	6060563	2350	999
3	6073159	2355	1028
3	6085656	2360	995
3	6098461	2365	1023
3	6111217	2370	1050
3	6123967	2375	1026
3	6137155	2380	1088
3	6149467	2385	938
3	6162081	2390	976
3	6174930	2395	1045
3	6187964	2400	1072
3	6201528	2405	1160
3	6214564	2410	1010
3	6227324	2415	996
3	6240574	2420	1110
3	6253568	2425	1062
3	6266152	2430	1030
3	6278762	2435	1018
3	6291600	2440	1056
3	6304413	2445	1043
3	6316927	2450	1006
3	6330478	2455	1081
3	6343061	2460	931
3	6356220	2465	1111
3	6368985	2470	1013
3	6382427	2475	1104
3	6395817	2480	1094
3	6408938	2485	1075
3	6422196	2490	1106
3	6434874	2495	1050
3	6448252	2500	1092
3	6461380	2505	1088
3	6474334	2510	1072
3	6486719	2515	979
3	6499327	2520	1032
3	6512041	2525	1024
3	6524815	2530	1044
3	6537334	2535	1021
3	6550051	2540	991
3	6563021	2545	1050
3	6575775	2550	1070
3	6588502	2555	1077
3	6600937	2560	1011
3	6613975	2565	1072
3	6626653	2570	988
3	6639502	2575	985
3	6651962	2580	1014
3	6664311	2585	985
3	6677514	2590	1105
3	6689773	2595	997
3	6702791	2600	1066
3	6715432	2605	1043
3	6728023	2610	983
3	6739891	2615	946
3	6752341	2620	996
3	6764957	2625	1012
3	6776804	2630	933
3	6790111	2635	1093
3	6803461	2640	1124
3	6816308	2645	1031
3	6829451	2650	1077
3	6841989	2655	1022
3	6854727	2660	1018
3	6867755	2665	1028
3	6880541	2670	1006
3	6893192	2675	991
3	6906419	2680	1129
3	6919257	2685	1010
3	6931903	2690	1052
3	6945424	2695	1121
3	6958114	2700	1042
3	6970984	2705	1074
3	6983298	2710	1006
3	6996100	2715	1034
3	7008937	2720	1029
3	7022222	2725	1105
3	7034936	2730	1064
3	7047175	2735	1003
3	7060415	2740	1030
3	7074014	2745	1153
3	7086766	2750	1006
3	7099576	2755	1080
3	7112449	2760	1019
3	7125080	2765	1011
3	7137990	2770	1052
3	7150981	2775	1017
3	7164103	2780	1060
3	7177766	2785	1143
3	7190643	2790	1023
3	7203746	2795	1107
3	7216494	2800	1012
3	7229334	2805	1032
3	7241879	2810	1035
3	7255546	2815	1133
3	7268185	2820	1015
3	7281036	2825	1039
3	7293260	2830	1036
3	7306531	2835	1091
3	7319596	2840	1035
3	7332185	2845	983
3	7344777	2850	992
3	7357821	2855	990
3	7370469	2860	948
3	7383719	2865	1114
3	7396420	2870	1033
3	7409797	2875	1095
3	7423243	2880	1140
3	7436351	2885	1092
3	7449724	2890	1103
3	7462815	2895	1091
3	7475882	2900	1141
3	7488937	2905	1061
3	7501901	2910	1060
3	7515009	2915	1042
3	7527764	2920	1087
3	7540873	2925	1061
3	7554186	2930	1093
3	7567298	2935	1034
3	7580216	2940	1086
3	7592765	2945	1011
3	7605928	2950	1029
3	7618089	2955	1027
3	7630863	2960	1044
3	7644252	2965	1031
3	7657599	2970	1097
3	7670530	2975	1019
3	7683658	2980	1040
3	7697027	2985	1091
3	7709871	2990	1052
3	7723507	2995	1088
3	7736952	3000	1079
3	7749511	3005	1053
3	7762306	3010	1021
3	7775564	3015	1076
3	7788666	3020	1092
3	7802160	3025	1088
3	7815653	3030	1143
3	7828635	3035	1076
3	7841776	3040	1107
3	7855115	3045	1071
3	7867775	3050	998
3	7880578	3055	1029
3	7893173	3060	1025
3	7906096	3065	1019
3	7918899	3070	1045
3	7931238	3075	987
3	7944657	3080	1119
3	7957911	3085	1112
3	7970685	3090	1016
3	7983998	3095	1117
3	7997118	3100	1032
3	8010014	3105	1028
3	8022727	3110	1019
3	8035796	3115	1113
3	8048466	3120	980
3	8061222	3125	1044
3	8074121	3130	985
3	8086444	3135	995
3	8099556	3140	1058
3	8111601	3145	1001
3	8124900	3150	1019
3	8137761	3155	1063
3	8151070	3160	1099
3	8164762	3165	1104
3	8177759	3170	1057
3	8190721	3175	1040
3	8203767	3180	1090
3	8216594	3185	1039
3	8229506	3190	1054
3	8243099	3195	1103
3	8256299	3200	1068
3	8268917	3205	982
3	8281890	3210	1039
3	8294063	3215	975
3	8307088	3220	1043
3	8320270	3225	1086
3	8333052	3230	1022
3	8346032	3235	1060
3	8358775	3240	1007
3	8371325	3245	1016
3	8384313	3250	1028
3	8397563	3255	1070
3	8410692	3260	1095
3	8423464	3265	1048
3	8436580	3270	1052
3	8449428	3275	1048
3	8462538	3280	1046
3	8475043	3285	999
3	8488494	3290	1135
3	8500862	3295	982
3	8513854	3300	1026
3	8527014	3305	1108
3	8539842	3310	1064
3	8552823	3315	1057
3	8565846	3320	1069
3	8578868	3325	1092
3	8591441	3330	987
3	8603991	3335	1010
3	8617125	3340	1084
3	8630063	3345	1026
3	8643163	3350	1056
3	8655770	3355	993
3	8668475	3360	1071
3	8681418	3365	1037
3	8694566	3370	1056
3	8707227	3375	1027
3	8719808	3380	965
3	8732701	3385	1057
3	8745398	3390	1009
3	8758321	3395	1015
3	8771226	3400	1061
3	8784247	3405	1031
3	8797278	3410	1061
3	8810266	3415	1016
3	8823524	3420	1060
3	8836631	3425	1021
3	8849441	3430	1008
3	8861826	3435	1033
3	8874540	3440	1014
3	8887513	3445	1099
3	8900054	3450	1011
3	8912920	3455	1026
3	8925794	3460	1044
3	8938710	3465	1042
3	8951815	3470	1055
3	8964699	3475	1048
3	8977062	3480	1025
3	8989468	3485	992
3	9002301	3490	1023
3	9015202	3495	1021
3	9028152	3500	1076
3	9041180	3505	1030
3	9053994	3510	1024
3	9067111	3515	1095
3	9080462	3520	1111
3	9093387	3525	1029
3	9106190	3530	1039
3	9118740	3535	980
3	9131481	3540	1045
3	9144390	3545	1023
3	9157821	3550	1181
3	9170666	3555	1029
3	9183553	3560	1081
3	9196417	3565	1052
3	9208994	3570	1017
3	9221969	3575	1061
3	9234402	3580	1013
3	9247932	3585	1104
3	9261194	3590	1068
3	9274034	3595	1078
3	9286663	3600	1031
3	9299057	3605	990
3	9312348	3610	1161
3	9325437	3615	1071
3	9338668	3620	1087
3	9351510	3625	1060
3	9364553	3630	1039
3	9377597	3635	1108
3	9390607	3640	1052
3	9403305	3645	1030
3	9416606	3650	1133
3	9429585	3655	1055
3	9442046	3660	989
3	9454433	3665	1003
3	9467456	3670	1071
3	9480471	3675	1049
3	9492607	3680	962
3	9505276	3685	1007
3	9518603	3690	1045
3	9530984	3695	1007
3	9543675	3700	1003
3	9556649	3705	1074
3	9569636	3710	1043
3	9582627	3715	1029
3	9595475	3720	1028
3	9608341	3725	1064
3	9621530	3730	1077
3	9634526	3735	1078
3	9647249	3740	991
3	9660369	3745	1120
3	9673121	3750	1066
3	9685557	3755	1016
3	9698384	3760	1033
3	9710821	3765	957
3	9723893	3770	1066
3	9736744	3775	1025
3	9749636	3780	1082
3	9763077	3785	1153
3	9775465	3790	1030
3	9788113	3795	1008
3	9801398	3800	1075
3	9814402	3805	1012
3	9827522	3810	1080
3	9840114	3815	982
3	9852801	3820	983
3	9865296	3825	997
3	9878643	3830	1081
3	9891541	3835	1068
3	9904733	3840	1116
3	9917200	3845	1005
3	9930225	3850	1053
3	9942979	3855	1032
3	9956130	3860	1045
3	9969238	3865	1082
3	9981729	3870	973
3	9994363	3875	998
3	10006748	3880	965
3	10020111	3885	1063
3	10032388	3890	993
3	10045238	3895	1016
3	10058938	3900	1152
3	10071602	3905	1044
3	10084521	3910	995
3	10097004	3915	971
3	10110076	3920	1072
3	10123695	3925	1113
3	10136426	3930	1025
3	10149792	3935	1144
3	10162577	3940	1013
3	10175280	3945	1049
3	10188076	3950	1058
3	10199748	3955	934
3	10212633	3960	1017
3	10225399	3965	1024
3	10238261	3970	1040
3	10251259	3975	1034
3	10264014	3980	1001
3	10276849	3985	1017
3	10289986	3990	1039
3	10302621	3995	1027
3	10315453	4000	1044

