version 2
run warm-up-1-20211217-19:27:01-12596
attr configname warm-up
attr datetime 20211217-19:27:01
attr experiment warm-up
attr inifile omnetpp.ini
attr iterationvars ""
attr iterationvarsf ""
attr measurement ""
attr network Network
attr processid 12596
attr repetition 1
attr replication #1
attr resultdir results
attr runnumber 1
attr seedset 1
param **.server.p1 0.3
param **.server.p2 0.47
param **.clients.num_clients 60
param **.processor.service_rate 1000
param **.disk.service_rate 330
param **.webServer.serv_rate_w 165
param **.clients.timeWindow 5s

vector 0 Network.server.processor processor_backlog:vector ETV
attr source processor_backlog_s
vector 1 Network.server.disk disk_backlog:vector ETV
attr source disk_backlog_s
vector 2 Network.webServer wserver_backlog:vector ETV
attr source wserver_backlog_s
vector 3 Network.clients pkt_counter:vector ETV
attr source pkt_counter_s
0	2648	1	0
0	5398	2	0
0	7939	3	5
0	10563	4	0
0	13291	5	0
0	15800	6	0
0	18516	7	0
0	21024	8	4
0	23287	9	2
0	25644	10	0
0	28095	11	9
0	30796	12	2
0	33334	13	0
0	35914	14	2
0	38425	15	3
0	41046	16	8
0	43716	17	0
0	46339	18	0
0	48828	19	1
0	51473	20	0
0	53995	21	1
0	56277	22	6
0	58648	23	1
0	61319	24	1
0	63635	25	0
0	66404	26	3
0	68817	27	2
0	71372	28	0
0	74166	29	3
0	76658	30	0
0	78999	31	0
0	81699	32	3
0	84232	33	0
0	86761	34	0
0	89392	35	5
0	91826	36	2
0	94375	37	0
0	97129	38	0
0	99775	39	1
0	102414	40	4
0	105068	41	6
0	107845	42	2
0	110225	43	1
0	112633	44	7
0	115281	45	4
0	118001	46	2
0	120637	47	0
0	123280	48	1
0	125604	49	0
0	128409	50	5
0	130977	51	3
0	133577	52	0
0	136355	53	0
0	138978	54	0
0	141714	55	0
0	144354	56	2
0	146910	57	0
0	149553	58	0
0	151905	59	0
0	154442	60	3
0	157071	61	0
0	159634	62	0
0	162084	63	0
0	164696	64	2
0	167391	65	5
0	169775	66	1
0	172540	67	0
0	175054	68	7
0	177735	69	0
0	180436	70	6
0	183067	71	1
0	185615	72	0
0	188293	73	1
0	190901	74	3
0	193386	75	2
0	195970	76	0
0	198715	77	3
0	201283	78	0
0	204032	79	0
0	206423	80	0
0	208870	81	0
0	211496	82	4
0	214216	83	0
0	216602	84	1
0	218987	85	0
0	221635	86	0
0	224298	87	1
0	226918	88	3
0	229449	89	0
0	232050	90	0
0	234591	91	1
0	237350	92	0
0	239807	93	6
0	242521	94	2
0	244943	95	3
0	247602	96	1
0	250133	97	3
0	252607	98	1
0	255164	99	0
0	257441	100	0
0	260132	101	0
0	262855	102	0
0	265682	103	0
0	268293	104	0
0	270859	105	0
0	273369	106	1
0	276051	107	0
0	278389	108	5
0	280892	109	0
0	283626	110	1
0	285943	111	0
0	288543	112	0
0	290927	113	9
0	293516	114	0
0	296278	115	1
0	298678	116	10
0	301144	117	1
0	303929	118	0
0	306306	119	0
0	308711	120	0
0	311288	121	0
0	313792	122	0
0	316082	123	0
0	318584	124	0
0	321028	125	2
0	323746	126	0
0	326374	127	1
0	328876	128	4
0	331350	129	3
0	334032	130	0
0	336552	131	1
0	339138	132	0
0	341678	133	0
0	343957	134	3
0	346338	135	0
0	348795	136	3
0	351212	137	0
0	353665	138	0
0	356207	139	0
0	358933	140	2
0	361495	141	1
0	364073	142	3
0	366658	143	1
0	369203	144	2
0	371916	145	0
0	374486	146	0
0	376977	147	1
0	379410	148	0
0	381775	149	0
0	384145	150	1
0	386627	151	0
0	389415	152	2
0	392042	153	0
0	394675	154	3
0	397286	155	0
0	399813	156	1
0	402388	157	0
0	405044	158	0
0	407752	159	5
0	410426	160	8
0	412967	161	0
0	415621	162	1
0	418289	163	7
0	420995	164	2
0	423598	165	5
0	426156	166	2
0	428597	167	2
0	431315	168	0
0	433769	169	0
0	436269	170	0
0	438721	171	0
0	440889	172	0
0	443492	173	0
0	446386	174	4
0	449170	175	0
0	452096	176	0
0	454745	177	4
0	457475	178	5
0	460025	179	0
0	462819	180	0
0	464911	181	0
0	467468	182	1
0	469978	183	7
0	472652	184	2
0	475122	185	0
0	477902	186	3
0	480563	187	4
0	483190	188	1
0	485754	189	0
0	488382	190	5
0	490905	191	3
0	493644	192	2
0	496201	193	0
0	498715	194	0
0	501223	195	4
0	503717	196	0
0	506336	197	1
0	509106	198	1
0	511774	199	2
0	514372	200	3
0	517115	201	0
0	519761	202	0
0	522300	203	0
0	524804	204	0
0	527460	205	3
0	530099	206	1
0	532483	207	1
0	535237	208	7
0	537819	209	0
0	540353	210	10
0	543041	211	4
0	545309	212	0
0	547758	213	0
0	550379	214	2
0	553240	215	1
0	556005	216	0
0	558551	217	0
0	561094	218	0
0	563613	219	11
0	566241	220	6
0	569006	221	0
0	571630	222	4
0	574138	223	0
0	576724	224	0
0	579174	225	0
0	581877	226	0
0	584592	227	0
0	587189	228	2
0	589890	229	7
0	592523	230	4
0	595293	231	0
0	597986	232	6
0	600611	233	1
0	603166	234	0
0	605624	235	0
0	608252	236	0
0	610605	237	0
0	613049	238	0
0	615843	239	0
0	618452	240	0
0	620965	241	0
0	623587	242	4
0	626172	243	0
0	629209	244	7
0	631811	245	0
0	634402	246	0
0	637078	247	1
0	639878	248	7
0	642362	249	1
0	645109	250	1
0	647822	251	0
0	650437	252	1
0	653076	253	0
0	655650	254	0
0	658565	255	5
0	661152	256	0
0	663885	257	0
0	666370	258	0
0	668814	259	0
0	671401	260	3
0	674218	261	5
0	676703	262	3
0	679249	263	2
0	681873	264	1
0	684617	265	0
0	687171	266	1
0	689853	267	1
0	692632	268	0
0	695217	269	0
0	697803	270	2
0	700631	271	0
0	703335	272	5
0	706041	273	0
0	708450	274	0
0	711235	275	2
0	713801	276	0
0	716185	277	0
0	718692	278	1
0	721308	279	0
0	724048	280	1
0	726556	281	6
0	729153	282	0
0	731886	283	3
0	734526	284	2
0	737077	285	1
0	739686	286	0
0	742264	287	0
0	744802	288	0
0	747570	289	2
0	750119	290	0
0	752751	291	2
0	755191	292	0
0	757971	293	0
0	760654	294	6
0	763515	295	2
0	766163	296	0
0	768571	297	3
0	771314	298	0
0	773939	299	1
0	776549	300	0
0	779139	301	0
0	781780	302	7
0	784490	303	1
0	787414	304	0
0	789881	305	0
0	792554	306	6
0	795102	307	0
0	797632	308	0
0	800269	309	2
0	803182	310	3
0	805694	311	4
0	808408	312	2
0	810847	313	4
0	813297	314	3
0	815651	315	0
0	817959	316	2
0	820591	317	4
0	822929	318	3
0	825446	319	0
0	828044	320	0
0	830734	321	0
0	833428	322	1
0	835949	323	0
0	838726	324	0
0	841275	325	0
0	844053	326	0
0	846566	327	1
0	849180	328	1
0	851672	329	3
0	854323	330	2
0	856794	331	3
0	859331	332	3
0	862051	333	5
0	864513	334	2
0	866714	335	2
0	869153	336	0
0	871517	337	0
0	874278	338	1
0	876823	339	8
0	879505	340	7
0	882199	341	1
0	884513	342	0
0	886995	343	0
0	889443	344	6
0	891996	345	0
0	894864	346	2
0	897365	347	5
0	900121	348	0
0	902615	349	0
0	905041	350	1
0	907594	351	5
0	910241	352	4
0	912974	353	2
0	915569	354	0
0	918266	355	0
0	921094	356	9
0	923705	357	0
0	926330	358	3
0	928984	359	4
0	931787	360	0
0	934442	361	0
0	936915	362	0
0	939498	363	0
0	942277	364	7
0	944957	365	2
0	947387	366	0
0	949595	367	0
0	951915	368	1
0	954601	369	0
0	957033	370	1
0	959384	371	0
0	962094	372	0
0	964575	373	1
0	966948	374	0
0	969475	375	0
0	972084	376	0
0	974485	377	6
0	977281	378	0
0	979856	379	0
0	982688	380	8
0	985183	381	2
0	987680	382	1
0	990536	383	5
0	993043	384	0
0	995774	385	5
0	998572	386	0
0	1001301	387	7
0	1003741	388	1
0	1006363	389	1
0	1008925	390	4
0	1011433	391	0
0	1013991	392	3
0	1016580	393	0
0	1018976	394	0
0	1021379	395	5
0	1023966	396	1
0	1026717	397	0
0	1029243	398	0
0	1031449	399	0
0	1033979	400	3
0	1036672	401	1
0	1039357	402	0
0	1041986	403	0
0	1044565	404	3
0	1047164	405	0
0	1049714	406	0
0	1052326	407	5
0	1055101	408	0
0	1057643	409	3
0	1060359	410	0
0	1062917	411	3
0	1065539	412	1
0	1068159	413	0
0	1070753	414	0
0	1073070	415	0
0	1075603	416	0
0	1078221	417	1
0	1080765	418	0
0	1083493	419	0
0	1086093	420	8
0	1088703	421	1
0	1091471	422	6
0	1094130	423	3
0	1096565	424	0
0	1099154	425	0
0	1101545	426	0
0	1103989	427	1
0	1106426	428	3
0	1109092	429	0
0	1111551	430	3
0	1114124	431	2
0	1116719	432	3
0	1119380	433	12
0	1122280	434	0
0	1125008	435	0
0	1127468	436	0
0	1130117	437	0
0	1133009	438	1
0	1135662	439	4
0	1137987	440	0
0	1140607	441	2
0	1143213	442	9
0	1145727	443	0
0	1148399	444	0
0	1150897	445	0
0	1153634	446	4
0	1156150	447	3
0	1158837	448	0
0	1161309	449	0
0	1163842	450	0
0	1166333	451	0
0	1168846	452	0
0	1171429	453	5
0	1173941	454	0
0	1176571	455	0
0	1178864	456	0
0	1181443	457	0
0	1184174	458	0
0	1186767	459	0
0	1189509	460	0
0	1192132	461	0
0	1194983	462	0
0	1197465	463	0
0	1199987	464	0
0	1202487	465	0
0	1205017	466	0
0	1207484	467	0
0	1209768	468	2
0	1212444	469	0
0	1215000	470	0
0	1217411	471	0
0	1219878	472	0
0	1222444	473	3
0	1225210	474	1
0	1227722	475	0
0	1230157	476	5
0	1232731	477	0
0	1235356	478	0
0	1237849	479	0
0	1240361	480	0
0	1243124	481	0
0	1245584	482	0
0	1248188	483	0
0	1250678	484	0
0	1253269	485	0
0	1255942	486	1
0	1258459	487	0
0	1260887	488	0
0	1263567	489	0
0	1266189	490	9
0	1268691	491	2
0	1271420	492	3
0	1274022	493	6
0	1276578	494	0
0	1279161	495	0
0	1281591	496	0
0	1283964	497	4
0	1286548	498	0
0	1289296	499	0
0	1291983	500	4
0	1294517	501	1
0	1297123	502	1
0	1299697	503	12
0	1302211	504	0
0	1304795	505	3
0	1307181	506	0
0	1309704	507	2
0	1312369	508	0
0	1315038	509	0
0	1317442	510	0
0	1319651	511	4
0	1322157	512	0
0	1324740	513	0
0	1327322	514	5
0	1330035	515	1
0	1332758	516	0
0	1335264	517	1
0	1337848	518	0
0	1340238	519	0
0	1342904	520	1
0	1345705	521	0
0	1348420	522	7
0	1350860	523	0
0	1353608	524	3
0	1356463	525	0
0	1359172	526	1
0	1361662	527	0
0	1364377	528	0
0	1366990	529	0
0	1369543	530	1
0	1371981	531	1
0	1374514	532	0
0	1377093	533	1
0	1379712	534	4
0	1382491	535	2
0	1385254	536	9
0	1387984	537	0
0	1390616	538	0
0	1393318	539	3
0	1395739	540	0
0	1398241	541	0
0	1400451	542	0
0	1402874	543	1
0	1405464	544	1
0	1408004	545	4
0	1410379	546	0
0	1412900	547	1
0	1415392	548	0
0	1417937	549	0
0	1420629	550	0
0	1423189	551	1
0	1425745	552	0
0	1428532	553	0
0	1430987	554	0
0	1433585	555	0
0	1436181	556	5
0	1438748	557	4
0	1441457	558	0
0	1444021	559	4
0	1446482	560	1
0	1449039	561	0
0	1451542	562	0
0	1454160	563	0
0	1457114	564	2
0	1459746	565	0
0	1462301	566	0
0	1464826	567	0
0	1467507	568	5
0	1470080	569	3
0	1472723	570	0
0	1475395	571	0
0	1478044	572	2
0	1480893	573	11
0	1483565	574	0
0	1486167	575	3
0	1488535	576	0
0	1491082	577	0
0	1493546	578	0
0	1496193	579	0
0	1499127	580	2
0	1501647	581	0
0	1504282	582	0
0	1506906	583	0
0	1509632	584	0
0	1512200	585	0
0	1514911	586	0
0	1517428	587	1
0	1520140	588	0
0	1522627	589	0
0	1525107	590	1
0	1527661	591	0
0	1530417	592	1
0	1533305	593	2
0	1535702	594	0
0	1538249	595	0
0	1540920	596	0
0	1543484	597	1
0	1546027	598	0
0	1548779	599	0
0	1551283	600	1
0	1553761	601	0
0	1556362	602	6
0	1559039	603	2
0	1561468	604	0
0	1564074	605	1
0	1566724	606	0
0	1569180	607	0
0	1571817	608	0
0	1574243	609	4
0	1576692	610	0
0	1579218	611	6
0	1581558	612	0
0	1584312	613	0
0	1586852	614	0
0	1589338	615	6
0	1591814	616	0
0	1594349	617	0
0	1596977	618	0
0	1599677	619	0
0	1601974	620	4
0	1604496	621	0
0	1607046	622	0
0	1609495	623	0
0	1612110	624	3
0	1614594	625	2
0	1617160	626	3
0	1619589	627	0
0	1622068	628	5
0	1624692	629	0
0	1627153	630	1
0	1629494	631	0
0	1631909	632	0
0	1634280	633	0
0	1636961	634	0
0	1639490	635	0
0	1641862	636	2
0	1644654	637	1
0	1647223	638	2
0	1649568	639	3
0	1652283	640	1
0	1654795	641	0
0	1657453	642	0
0	1660044	643	2
0	1662554	644	1
0	1665269	645	2
0	1667914	646	2
0	1670465	647	6
0	1673153	648	0
0	1675568	649	0
0	1678101	650	1
0	1680752	651	0
0	1683390	652	0
0	1685967	653	3
0	1688244	654	1
0	1690604	655	1
0	1692971	656	0
0	1695579	657	0
0	1698158	658	2
0	1700471	659	3
0	1703033	660	1
0	1705626	661	4
0	1708168	662	0
0	1710643	663	0
0	1713428	664	5
0	1715939	665	0
0	1718572	666	0
0	1721188	667	0
0	1723619	668	0
0	1726227	669	0
0	1728939	670	2
0	1731506	671	1
0	1734152	672	0
0	1736882	673	0
0	1739431	674	3
0	1742015	675	1
0	1744636	676	0
0	1747060	677	0
0	1749812	678	0
0	1752245	679	2
0	1755141	680	1
0	1757798	681	17
0	1760581	682	0
0	1763001	683	2
0	1765532	684	7
0	1768314	685	3
0	1770807	686	2
0	1773289	687	0
0	1775778	688	1
0	1778283	689	0
0	1780679	690	0
0	1783405	691	0
0	1785653	692	0
0	1788206	693	0
0	1790908	694	2
0	1793601	695	0
0	1796265	696	10
0	1798981	697	2
0	1801563	698	5
0	1804088	699	2
0	1806782	700	2
0	1809132	701	0
0	1811587	702	0
0	1814279	703	18
0	1816674	704	1
0	1819155	705	2
0	1821913	706	1
0	1824527	707	2
0	1827131	708	0
0	1829527	709	1
0	1832088	710	0
0	1834413	711	0
0	1836656	712	1
0	1839228	713	2
0	1841982	714	0
0	1844726	715	0
0	1847325	716	2
0	1849935	717	1
0	1852590	718	0
0	1855365	719	0
0	1857792	720	0
0	1860330	721	0
0	1863102	722	9
0	1865787	723	2
0	1868339	724	0
0	1870623	725	0
0	1873065	726	1
0	1875499	727	2
0	1877931	728	2
0	1880690	729	3
0	1883202	730	0
0	1885530	731	0
0	1888166	732	0
0	1890931	733	0
0	1893439	734	0
0	1895915	735	6
0	1898603	736	4
0	1901459	737	0
0	1904025	738	0
0	1906297	739	0
0	1908786	740	0
0	1911497	741	0
0	1913933	742	0
0	1916113	743	2
0	1918697	744	3
0	1921322	745	0
0	1923941	746	0
0	1926474	747	0
0	1929039	748	0
0	1931391	749	0
0	1933982	750	0
0	1936494	751	0
0	1939230	752	0
0	1941730	753	2
0	1944077	754	0
0	1946684	755	0
0	1949265	756	2
0	1951905	757	5
0	1954499	758	3
0	1956990	759	3
0	1959565	760	0
0	1962262	761	0
0	1965099	762	0
0	1967797	763	0
0	1970411	764	3
0	1972867	765	5
0	1975262	766	0
0	1977893	767	2
0	1980351	768	1
0	1983137	769	0
0	1985684	770	1
0	1988020	771	0
0	1990582	772	1
0	1992962	773	0
0	1995558	774	1
0	1998119	775	0
0	2000789	776	0
0	2003501	777	2
0	2005985	778	0
0	2008713	779	3
0	2011540	780	13
0	2014450	781	0
0	2017090	782	3
0	2019917	783	1
0	2022156	784	0
0	2024738	785	3
0	2027232	786	0
0	2030130	787	0
0	2032551	788	1
0	2035044	789	0
0	2037700	790	0
0	2040087	791	0
0	2042696	792	5
0	2045719	793	3
0	2048190	794	2
0	2050974	795	0
0	2053485	796	0
0	2055951	797	4
0	2058469	798	0
0	2061037	799	0
0	2063736	800	0
0	2066006	801	0
0	2068597	802	0
0	2071260	803	2
0	2073838	804	0
0	2076349	805	0
0	2079037	806	7
0	2081632	807	3
0	2084048	808	0
0	2086825	809	4
0	2089526	810	2
0	2092195	811	1
0	2094696	812	9
0	2097184	813	1
0	2099934	814	6
0	2102406	815	4
0	2104843	816	3
0	2107378	817	0
0	2109665	818	7
0	2112240	819	0
0	2114895	820	2
0	2117413	821	1
0	2120044	822	0
0	2122704	823	1
0	2125299	824	2
0	2127666	825	0
0	2130090	826	8
0	2132901	827	1
0	2135392	828	0
0	2137882	829	3
0	2140747	830	1
0	2143445	831	3
0	2146005	832	0
0	2148624	833	1
0	2151211	834	0
0	2153640	835	3
0	2156410	836	2
0	2158977	837	1
0	2161407	838	0
0	2164185	839	0
0	2166863	840	0
0	2169572	841	0
0	2172243	842	8
0	2174956	843	5
0	2177642	844	3
0	2180322	845	0
0	2182565	846	2
0	2184785	847	1
0	2187316	848	0
0	2189835	849	0
0	2192333	850	0
0	2194939	851	9
0	2197594	852	4
0	2200287	853	0
0	2202861	854	1
0	2205420	855	1
0	2208002	856	2
0	2210747	857	0
0	2213402	858	1
0	2216105	859	0
0	2218794	860	2
0	2221280	861	2
0	2223862	862	2
0	2226468	863	0
0	2228893	864	2
0	2231378	865	1
0	2233782	866	0
0	2236303	867	0
0	2239003	868	0
0	2241426	869	4
0	2243922	870	3
0	2246358	871	0
0	2249021	872	17
0	2251850	873	2
0	2254281	874	0
0	2256772	875	0
0	2259530	876	1
0	2262079	877	1
0	2264686	878	0
0	2267243	879	8
0	2269835	880	0
0	2272527	881	7
0	2275101	882	5
0	2277774	883	0
0	2280413	884	5
0	2283112	885	3
0	2285725	886	1
0	2288316	887	1
0	2290818	888	0
0	2293301	889	0
0	2295727	890	0
0	2298433	891	0
0	2300850	892	0
0	2303389	893	0
0	2305885	894	1
0	2308267	895	2
0	2310837	896	0
0	2313036	897	0
0	2315688	898	0
0	2318149	899	0
0	2320788	900	6
0	2323322	901	0
0	2325713	902	6
0	2328354	903	7
0	2331121	904	0
0	2333644	905	0
0	2335947	906	1
0	2338540	907	0
0	2341235	908	8
0	2343873	909	1
0	2346483	910	0
0	2349169	911	1
0	2351728	912	6
0	2354736	913	3
0	2357487	914	1
0	2359702	915	1
0	2362026	916	0
0	2364531	917	4
0	2367409	918	5
0	2370211	919	1
0	2372504	920	0
0	2375264	921	0
0	2377867	922	0
0	2380199	923	0
0	2382747	924	0
0	2385269	925	0
0	2387807	926	1
0	2390286	927	0
0	2392879	928	2
0	2395371	929	4
0	2397658	930	1
0	2400374	931	3
0	2403062	932	2
0	2405893	933	0
0	2408380	934	2
0	2410877	935	0
0	2413499	936	8
0	2416307	937	16
0	2418918	938	6
0	2421554	939	10
0	2424089	940	15
0	2426765	941	0
0	2429360	942	2
0	2431977	943	0
0	2434674	944	4
0	2437245	945	2
0	2439691	946	0
0	2442479	947	1
0	2444926	948	0
0	2447517	949	0
0	2450309	950	0
0	2453019	951	0
0	2455727	952	3
0	2458286	953	0
0	2460868	954	1
0	2463529	955	1
0	2466218	956	2
0	2468773	957	2
0	2471526	958	0
0	2474434	959	3
0	2477023	960	3
0	2479679	961	0
0	2482569	962	0
0	2484790	963	6
0	2487487	964	2
0	2489863	965	0
0	2492417	966	0
0	2495088	967	2
0	2497870	968	1
0	2500600	969	3
0	2503129	970	0
0	2505971	971	0
0	2508611	972	0
0	2511418	973	1
0	2514071	974	0
0	2516614	975	0
0	2519316	976	2
0	2521708	977	0
0	2524336	978	0
0	2527301	979	0
0	2530162	980	4
0	2532590	981	0
0	2535164	982	1
0	2537820	983	3
0	2540365	984	0
0	2542963	985	6
0	2545633	986	0
0	2548254	987	0
0	2550806	988	4
0	2553542	989	8
0	2556145	990	1
0	2558960	991	2
0	2561668	992	1
0	2564412	993	4
0	2566811	994	1
0	2569202	995	0
0	2571709	996	2
0	2574323	997	0
0	2576953	998	0
0	2579471	999	0
0	2582159	1000	3
0	2584729	1001	0
0	2587299	1002	2
0	2589933	1003	0
0	2592600	1004	0
0	2595512	1005	11
0	2598145	1006	0
0	2600840	1007	5
0	2603463	1008	2
0	2606309	1009	7
0	2608920	1010	0
0	2611561	1011	0
0	2614121	1012	0
0	2616562	1013	0
0	2618971	1014	4
0	2621560	1015	4
0	2624208	1016	0
0	2626550	1017	2
0	2629357	1018	4
0	2631874	1019	0
0	2634413	1020	0
0	2637156	1021	0
0	2639798	1022	0
0	2642548	1023	0
0	2645155	1024	0
0	2647653	1025	4
0	2650178	1026	0
0	2652814	1027	3
0	2655531	1028	2
0	2658103	1029	0
0	2660696	1030	0
0	2663302	1031	0
0	2665801	1032	0
0	2668509	1033	0
0	2670967	1034	0
0	2673469	1035	0
0	2676162	1036	2
0	2678738	1037	3
0	2681437	1038	0
0	2683846	1039	0
0	2686525	1040	0
0	2688892	1041	0
0	2691500	1042	0
0	2694079	1043	5
0	2696496	1044	3
0	2698903	1045	2
0	2701620	1046	0
0	2704225	1047	2
0	2706850	1048	1
0	2709539	1049	0
0	2712360	1050	8
0	2714952	1051	3
0	2717580	1052	0
0	2720018	1053	0
0	2722796	1054	0
0	2725415	1055	3
0	2727914	1056	0
0	2730518	1057	1
0	2733081	1058	5
0	2735667	1059	2
0	2738179	1060	1
0	2740801	1061	0
0	2743175	1062	2
0	2745784	1063	0
0	2748526	1064	4
0	2751072	1065	2
0	2753626	1066	0
0	2756040	1067	3
0	2758627	1068	0
0	2760951	1069	1
0	2763265	1070	0
0	2765853	1071	1
0	2768393	1072	0
0	2770968	1073	1
0	2773782	1074	0
0	2776473	1075	0
0	2778897	1076	3
0	2781248	1077	2
0	2783790	1078	0
0	2786510	1079	0
0	2789204	1080	6
0	2791538	1081	0
0	2794257	1082	2
0	2796816	1083	4
0	2799575	1084	2
0	2802016	1085	0
0	2804542	1086	2
0	2807136	1087	2
0	2809781	1088	3
0	2812454	1089	1
0	2814966	1090	0
0	2817714	1091	0
0	2820228	1092	1
0	2822411	1093	1
0	2825293	1094	0
0	2827769	1095	1
0	2830094	1096	0
0	2832603	1097	1
0	2835115	1098	8
0	2837726	1099	7
0	2840083	1100	3
0	2842785	1101	0
0	2845325	1102	4
0	2848054	1103	0
0	2850835	1104	3
0	2853360	1105	0
0	2855983	1106	0
0	2858294	1107	1
0	2860786	1108	0
0	2863357	1109	1
0	2866022	1110	2
0	2868608	1111	2
0	2871306	1112	0
0	2873811	1113	2
0	2876303	1114	0
0	2878931	1115	0
0	2881449	1116	1
0	2884105	1117	5
0	2886715	1118	2
0	2889238	1119	6
0	2891652	1120	0
0	2894098	1121	3
0	2896469	1122	0
0	2898824	1123	17
0	2901598	1124	0
0	2904161	1125	0
0	2906321	1126	9
0	2908934	1127	0
0	2911651	1128	1
0	2914322	1129	2
0	2916839	1130	0
0	2919328	1131	0
0	2922063	1132	2
0	2924654	1133	0
0	2927540	1134	0
0	2930312	1135	0
0	2932814	1136	1
0	2935564	1137	0
0	2938332	1138	0
0	2940821	1139	8
0	2943398	1140	0
0	2945760	1141	1
0	2948346	1142	4
0	2950798	1143	2
0	2953238	1144	0
0	2955718	1145	2
0	2958386	1146	3
0	2961059	1147	0
0	2963454	1148	0
0	2966103	1149	1
0	2968618	1150	0
0	2970980	1151	1
0	2973320	1152	1
0	2975957	1153	0
0	2978545	1154	4
0	2981075	1155	7
0	2983666	1156	4
0	2986281	1157	2
0	2989036	1158	0
0	2991845	1159	0
0	2994575	1160	0
0	2997089	1161	5
0	2999850	1162	0
0	3002392	1163	4
0	3004999	1164	0
0	3007417	1165	1
0	3009861	1166	0
0	3012371	1167	3
0	3015204	1168	0
0	3017831	1169	0
0	3020207	1170	5
0	3022814	1171	0
0	3025517	1172	0
0	3027971	1173	0
0	3030625	1174	0
0	3033200	1175	0
0	3035510	1176	0
0	3038167	1177	5
0	3040444	1178	2
0	3043096	1179	0
0	3045493	1180	2
0	3048057	1181	1
0	3050764	1182	0
0	3053237	1183	0
0	3055714	1184	0
0	3058482	1185	0
0	3061159	1186	0
0	3063903	1187	1
0	3066419	1188	0
0	3068935	1189	0
0	3071486	1190	0
0	3074243	1191	0
0	3076820	1192	2
0	3079333	1193	0
0	3081940	1194	0
0	3084540	1195	0
0	3087235	1196	2
0	3089670	1197	0
0	3092430	1198	0
0	3094870	1199	0
0	3097366	1200	0
0	3100011	1201	1
0	3102690	1202	1
0	3105205	1203	3
0	3107892	1204	0
0	3110570	1205	0
0	3112975	1206	6
0	3115592	1207	0
0	3118291	1208	0
0	3120888	1209	0
0	3123604	1210	0
0	3126105	1211	0
0	3128349	1212	0
0	3130754	1213	1
0	3133241	1214	3
0	3135819	1215	0
0	3138367	1216	9
0	3141165	1217	0
0	3143811	1218	2
0	3146395	1219	3
0	3148992	1220	0
0	3151872	1221	0
0	3154556	1222	0
0	3157211	1223	0
0	3159865	1224	1
0	3162425	1225	4
0	3165144	1226	4
0	3167731	1227	0
0	3170246	1228	0
0	3172919	1229	0
0	3175593	1230	6
0	3178343	1231	0
0	3180956	1232	2
0	3183642	1233	0
0	3186322	1234	4
0	3188915	1235	0
0	3191413	1236	4
0	3194174	1237	0
0	3196986	1238	5
0	3199402	1239	0
0	3201949	1240	3
0	3204572	1241	2
0	3207185	1242	1
0	3209641	1243	1
0	3211947	1244	2
0	3214578	1245	13
0	3217053	1246	1
0	3219833	1247	0
0	3222491	1248	0
0	3225144	1249	9
0	3227491	1250	2
0	3230104	1251	6
0	3232759	1252	2
0	3235327	1253	0
0	3237965	1254	1
0	3240842	1255	0
0	3243620	1256	0
0	3245892	1257	0
0	3248528	1258	1
0	3250948	1259	0
0	3253836	1260	1
0	3256280	1261	0
0	3258939	1262	0
0	3261288	1263	0
0	3264010	1264	7
0	3266636	1265	0
0	3269243	1266	7
0	3272046	1267	5
0	3274788	1268	10
0	3277442	1269	3
0	3280110	1270	8
0	3282741	1271	0
0	3285431	1272	1
0	3288016	1273	7
0	3290741	1274	3
0	3293375	1275	0
0	3296016	1276	0
0	3298428	1277	1
0	3300780	1278	0
0	3303567	1279	1
0	3306198	1280	2
0	3308860	1281	0
0	3311349	1282	0
0	3313960	1283	0
0	3316524	1284	10
0	3319353	1285	0
0	3321772	1286	0
0	3324205	1287	0
0	3326839	1288	0
0	3329456	1289	0
0	3331893	1290	0
0	3334637	1291	3
0	3337256	1292	0
0	3339912	1293	0
0	3342435	1294	0
0	3345054	1295	0
0	3347810	1296	0
0	3350478	1297	0
0	3352862	1298	0
0	3355093	1299	0
0	3357593	1300	2
0	3360303	1301	2
0	3363263	1302	1
0	3365983	1303	0
0	3368353	1304	1
0	3370893	1305	0
0	3373544	1306	0
0	3376292	1307	0
0	3378751	1308	14
0	3381554	1309	0
0	3384338	1310	0
0	3387131	1311	0
0	3389794	1312	0
0	3392515	1313	11
0	3395129	1314	0
0	3397720	1315	0
0	3400351	1316	0
0	3403097	1317	3
0	3405650	1318	0
0	3408064	1319	0
0	3410821	1320	1
0	3413285	1321	0
0	3415986	1322	0
0	3418762	1323	10
0	3420928	1324	0
0	3423655	1325	1
0	3426098	1326	1
0	3428581	1327	0
0	3430976	1328	0
0	3433351	1329	0
0	3436174	1330	0
0	3438663	1331	0
0	3441260	1332	0
0	3443741	1333	2
0	3446349	1334	2
0	3449021	1335	7
0	3451677	1336	10
0	3454415	1337	0
0	3456791	1338	7
0	3459321	1339	1
0	3462007	1340	2
0	3464672	1341	1
0	3467090	1342	4
0	3469706	1343	2
0	3472496	1344	0
0	3475343	1345	0
0	3478022	1346	0
0	3480749	1347	0
0	3483279	1348	0
0	3485809	1349	0
0	3488328	1350	0
0	3490703	1351	0
0	3493115	1352	0
0	3495631	1353	2
0	3498174	1354	0
0	3500453	1355	0
0	3503038	1356	3
0	3505501	1357	2
0	3508228	1358	0
0	3510917	1359	0
0	3513363	1360	8
0	3515892	1361	0
0	3518459	1362	7
0	3521072	1363	0
0	3523780	1364	0
0	3526254	1365	0
0	3528889	1366	0
0	3531394	1367	2
0	3533904	1368	0
0	3536402	1369	6
0	3538903	1370	0
0	3541572	1371	8
0	3544196	1372	0
0	3546843	1373	3
0	3549680	1374	1
0	3552392	1375	0
0	3554811	1376	0
0	3557244	1377	0
0	3559730	1378	0
0	3562387	1379	0
0	3564990	1380	2
0	3567605	1381	0
0	3570155	1382	2
0	3572667	1383	0
0	3575052	1384	1
0	3577766	1385	0
0	3580445	1386	0
0	3583120	1387	0
0	3585686	1388	6
0	3588376	1389	4
0	3590936	1390	1
0	3593691	1391	0
0	3596494	1392	3
0	3599159	1393	0
0	3601857	1394	0
0	3604438	1395	0
0	3607020	1396	1
0	3609741	1397	0
0	3612273	1398	0
0	3614769	1399	0
0	3617152	1400	0
0	3619697	1401	0
0	3621820	1402	1
0	3624398	1403	0
0	3626974	1404	2
0	3629661	1405	0
0	3632336	1406	2
0	3634969	1407	0
0	3637563	1408	0
0	3640085	1409	3
0	3642568	1410	1
0	3645281	1411	3
0	3648096	1412	1
0	3650668	1413	0
0	3653147	1414	2
0	3655754	1415	0
0	3658391	1416	0
0	3661203	1417	0
0	3663885	1418	1
0	3666688	1419	0
0	3669113	1420	2
0	3671706	1421	0
0	3674239	1422	5
0	3676805	1423	1
0	3679300	1424	1
0	3681847	1425	0
0	3684627	1426	0
0	3687322	1427	0
0	3690100	1428	0
0	3692644	1429	0
0	3695343	1430	2
0	3698041	1431	1
0	3700595	1432	4
0	3703055	1433	2
0	3705670	1434	1
0	3708443	1435	5
0	3711128	1436	1
0	3713748	1437	4
0	3716228	1438	1
0	3719060	1439	3
0	3721856	1440	1
0	3724509	1441	3
0	3727027	1442	0
0	3729474	1443	3
0	3732027	1444	1
0	3734716	1445	0
0	3737731	1446	0
0	3740430	1447	0
0	3742834	1448	0
0	3745422	1449	0
0	3748156	1450	4
0	3750730	1451	1
0	3753278	1452	0
0	3755645	1453	1
0	3758001	1454	3
0	3760362	1455	5
0	3762602	1456	0
0	3765323	1457	0
0	3767946	1458	0
0	3770685	1459	0
0	3773364	1460	3
0	3776004	1461	0
0	3778599	1462	3
0	3781272	1463	2
0	3783769	1464	0
0	3786641	1465	2
0	3789267	1466	4
0	3791791	1467	2
0	3794481	1468	0
0	3797064	1469	0
0	3799706	1470	3
0	3802331	1471	0
0	3804752	1472	2
0	3807510	1473	1
0	3810156	1474	0
0	3812662	1475	0
0	3815087	1476	1
0	3817727	1477	2
0	3820459	1478	0
0	3823008	1479	2
0	3825668	1480	0
0	3828521	1481	10
0	3831150	1482	0
0	3833638	1483	6
0	3836472	1484	1
0	3839082	1485	4
0	3841358	1486	3
0	3843669	1487	1
0	3846167	1488	0
0	3848593	1489	8
0	3851036	1490	4
0	3853941	1491	0
0	3856520	1492	0
0	3859325	1493	2
0	3861933	1494	0
0	3864733	1495	1
0	3867398	1496	13
0	3870106	1497	0
0	3872772	1498	7
0	3875092	1499	0
0	3877603	1500	1
0	3880102	1501	0
0	3882628	1502	2
0	3885339	1503	0
0	3887667	1504	0
0	3889702	1505	12
0	3892255	1506	0
0	3894797	1507	3
0	3897626	1508	0
0	3900165	1509	1
0	3902694	1510	0
0	3905395	1511	1
0	3907939	1512	4
0	3910784	1513	5
0	3913340	1514	0
0	3916018	1515	7
0	3918445	1516	0
0	3920908	1517	0
0	3923461	1518	1
0	3926019	1519	4
0	3928916	1520	1
0	3931378	1521	0
0	3933737	1522	0
0	3935915	1523	0
0	3938344	1524	0
0	3940915	1525	0
0	3943087	1526	0
0	3945946	1527	0
0	3948457	1528	4
0	3950953	1529	2
0	3953459	1530	0
0	3955966	1531	0
0	3958640	1532	0
0	3961061	1533	0
0	3963479	1534	0
0	3966081	1535	5
0	3968573	1536	8
0	3971199	1537	6
0	3973779	1538	0
0	3976611	1539	0
0	3978771	1540	4
0	3981016	1541	2
0	3983365	1542	2
0	3985866	1543	0
0	3988394	1544	0
0	3990588	1545	1
0	3993044	1546	0
0	3995525	1547	12
0	3998288	1548	3
0	4000964	1549	0
0	4003918	1550	1
0	4006644	1551	12
0	4009028	1552	0
0	4011521	1553	0
0	4014208	1554	3
0	4016595	1555	0
0	4019044	1556	5
0	4021709	1557	9
0	4024583	1558	18
0	4027065	1559	3
0	4029556	1560	1
0	4032247	1561	0
0	4034481	1562	1
0	4036891	1563	2
0	4039326	1564	0
0	4041859	1565	0
0	4044269	1566	0
0	4046799	1567	0
0	4049491	1568	0
0	4052189	1569	2
0	4054589	1570	6
0	4057046	1571	1
0	4059749	1572	2
0	4062393	1573	0
0	4065142	1574	0
0	4067732	1575	2
0	4070331	1576	2
0	4073051	1577	0
0	4075902	1578	0
0	4078572	1579	7
0	4081093	1580	4
0	4083704	1581	0
0	4086148	1582	0
0	4088778	1583	2
0	4091117	1584	0
0	4093651	1585	2
0	4096074	1586	4
0	4098534	1587	0
0	4101020	1588	0
0	4103445	1589	0
0	4105906	1590	0
0	4108586	1591	2
0	4110877	1592	2
0	4113452	1593	1
0	4116051	1594	0
0	4118462	1595	5
0	4120881	1596	1
0	4123476	1597	3
0	4125989	1598	0
0	4128636	1599	0
0	4131126	1600	0
0	4133779	1601	0
0	4136369	1602	0
0	4138846	1603	0
0	4141236	1604	0
0	4143759	1605	2
0	4146145	1606	18
0	4148687	1607	0
0	4151293	1608	0
0	4154106	1609	0
0	4156647	1610	6
0	4159049	1611	2
0	4161525	1612	0
0	4163855	1613	0
0	4166595	1614	2
0	4169279	1615	8
0	4171656	1616	0
0	4174189	1617	0
0	4176570	1618	0
0	4179206	1619	3
0	4181783	1620	0
0	4184501	1621	0
0	4186962	1622	0
0	4189511	1623	0
0	4192185	1624	1
0	4194941	1625	7
0	4197545	1626	7
0	4200211	1627	0
0	4202998	1628	2
0	4205740	1629	0
0	4208231	1630	0
0	4210951	1631	6
0	4213496	1632	5
0	4215965	1633	0
0	4218509	1634	0
0	4220806	1635	0
0	4223489	1636	7
0	4226101	1637	4
0	4228771	1638	0
0	4231485	1639	1
0	4233912	1640	2
0	4236360	1641	1
0	4238984	1642	0
0	4241736	1643	2
0	4244496	1644	0
0	4247157	1645	0
0	4249806	1646	0
0	4252365	1647	0
0	4255055	1648	0
0	4257608	1649	0
0	4260040	1650	2
0	4262598	1651	0
0	4264984	1652	3
0	4267600	1653	0
0	4270121	1654	0
0	4272832	1655	0
0	4275185	1656	7
0	4278086	1657	0
0	4280663	1658	0
0	4283220	1659	8
0	4285928	1660	0
0	4288522	1661	1
0	4291069	1662	0
0	4293647	1663	0
0	4296044	1664	2
0	4298653	1665	0
0	4301363	1666	0
0	4303641	1667	0
0	4306025	1668	3
0	4308486	1669	6
0	4310739	1670	0
0	4313418	1671	7
0	4315791	1672	0
0	4318433	1673	0
0	4321012	1674	0
0	4323538	1675	0
0	4326060	1676	4
0	4328816	1677	0
0	4331288	1678	0
0	4333905	1679	0
0	4336503	1680	5
0	4339163	1681	0
0	4341888	1682	6
0	4344509	1683	3
0	4347272	1684	0
0	4349897	1685	6
0	4352675	1686	0
0	4355541	1687	5
0	4358365	1688	12
0	4360783	1689	0
0	4363316	1690	0
0	4366072	1691	0
0	4368543	1692	3
0	4371332	1693	0
0	4373684	1694	4
0	4376244	1695	2
0	4378734	1696	1
0	4381173	1697	0
0	4383693	1698	1
0	4385895	1699	0
0	4388641	1700	9
0	4391333	1701	0
0	4394134	1702	0
0	4396655	1703	7
0	4399125	1704	0
0	4401569	1705	0
0	4404092	1706	4
0	4406590	1707	0
0	4409410	1708	6
0	4411955	1709	0
0	4414541	1710	2
0	4417043	1711	0
0	4419378	1712	10
0	4421796	1713	1
0	4424516	1714	1
0	4427085	1715	0
0	4429627	1716	4
0	4432147	1717	0
0	4434817	1718	0
0	4437548	1719	0
0	4440191	1720	1
0	4442959	1721	0
0	4445468	1722	0
0	4448347	1723	9
0	4450758	1724	1
0	4453029	1725	0
0	4455671	1726	5
0	4458408	1727	0
0	4461115	1728	0
0	4463698	1729	2
0	4466097	1730	1
0	4468777	1731	0
0	4471401	1732	0
0	4473959	1733	0
0	4476409	1734	0
0	4478961	1735	0
0	4481682	1736	8
0	4484239	1737	2
0	4486843	1738	0
0	4489468	1739	0
0	4492111	1740	3
0	4494688	1741	0
0	4497249	1742	0
0	4499965	1743	12
0	4502720	1744	0
0	4505113	1745	0
0	4507406	1746	0
0	4509999	1747	2
0	4512453	1748	0
0	4515058	1749	0
0	4517644	1750	0
0	4520109	1751	3
0	4522717	1752	13
0	4525418	1753	3
0	4527734	1754	0
0	4530430	1755	0
0	4533095	1756	4
0	4535514	1757	2
0	4538302	1758	0
0	4540817	1759	4
0	4543471	1760	0
0	4546160	1761	0
0	4548730	1762	0
0	4551290	1763	2
0	4554059	1764	0
0	4556630	1765	3
0	4559348	1766	0
0	4562075	1767	5
0	4564692	1768	1
0	4567429	1769	0
0	4570014	1770	0
0	4572677	1771	0
0	4574906	1772	0
0	4577477	1773	1
0	4579801	1774	6
0	4582524	1775	0
0	4585100	1776	0
0	4587765	1777	2
0	4590210	1778	2
0	4592795	1779	2
0	4595385	1780	0
0	4598055	1781	0
0	4600507	1782	0
0	4603190	1783	0
0	4605776	1784	1
0	4608096	1785	0
0	4610620	1786	0
0	4613271	1787	0
0	4615897	1788	0
0	4618394	1789	0
0	4620645	1790	3
0	4623167	1791	3
0	4625420	1792	0
0	4628022	1793	0
0	4630801	1794	1
0	4633327	1795	0
0	4635598	1796	1
0	4638168	1797	2
0	4640725	1798	0
0	4643469	1799	1
0	4646145	1800	4
0	4648683	1801	0
0	4651397	1802	10
0	4653652	1803	0
0	4656078	1804	2
0	4658668	1805	0
0	4661412	1806	11
0	4664020	1807	0
0	4666728	1808	4
0	4669072	1809	6
0	4671540	1810	0
0	4673909	1811	1
0	4676607	1812	0
0	4679166	1813	0
0	4681615	1814	4
0	4684191	1815	2
0	4686684	1816	0
0	4689331	1817	0
0	4691630	1818	0
0	4694319	1819	0
0	4696991	1820	0
0	4699445	1821	2
0	4701944	1822	3
0	4704275	1823	0
0	4707052	1824	0
0	4709473	1825	0
0	4712187	1826	0
0	4714659	1827	0
0	4717000	1828	3
0	4719479	1829	4
0	4722023	1830	0
0	4724693	1831	0
0	4727149	1832	0
0	4729648	1833	3
0	4732311	1834	0
0	4734883	1835	2
0	4737678	1836	0
0	4740265	1837	3
0	4743023	1838	1
0	4745675	1839	2
0	4748223	1840	2
0	4750713	1841	1
0	4753202	1842	4
0	4755669	1843	0
0	4758282	1844	3
0	4760915	1845	2
0	4763353	1846	5
0	4766009	1847	2
0	4768526	1848	0
0	4771120	1849	1
0	4773588	1850	2
0	4776243	1851	0
0	4778683	1852	1
0	4781248	1853	0
0	4783818	1854	1
0	4786507	1855	0
0	4788911	1856	5
0	4791450	1857	7
0	4793856	1858	2
0	4796495	1859	0
0	4799248	1860	3
0	4801894	1861	1
0	4804503	1862	0
0	4807519	1863	0
0	4809985	1864	0
0	4812581	1865	0
0	4815281	1866	0
0	4817682	1867	0
0	4820294	1868	12
0	4822798	1869	0
0	4825495	1870	3
0	4828145	1871	0
0	4830989	1872	7
0	4833696	1873	0
0	4835922	1874	1
0	4838345	1875	5
0	4840829	1876	7
0	4843460	1877	1
0	4846010	1878	0
0	4848433	1879	3
0	4851081	1880	0
0	4853734	1881	0
0	4856217	1882	0
0	4858715	1883	2
0	4861264	1884	1
0	4864096	1885	0
0	4866647	1886	2
0	4869337	1887	2
0	4871791	1888	3
0	4874542	1889	2
0	4877026	1890	0
0	4879755	1891	4
0	4882337	1892	3
0	4884676	1893	0
0	4887211	1894	8
0	4889799	1895	1
0	4892227	1896	0
0	4894832	1897	6
0	4897438	1898	0
0	4899874	1899	0
0	4902143	1900	0
0	4904836	1901	0
0	4907359	1902	0
0	4910060	1903	3
0	4912798	1904	11
0	4915448	1905	0
0	4917969	1906	0
0	4920495	1907	0
0	4922901	1908	0
0	4925540	1909	9
0	4927902	1910	0
0	4930236	1911	0
0	4932744	1912	4
0	4935101	1913	0
0	4937663	1914	0
0	4939931	1915	0
0	4942536	1916	1
0	4945268	1917	1
0	4947805	1918	1
0	4950181	1919	0
0	4952713	1920	7
0	4955334	1921	5
0	4958037	1922	0
0	4960601	1923	2
0	4963098	1924	1
0	4965814	1925	1
0	4968535	1926	0
0	4970990	1927	0
0	4973682	1928	3
0	4976230	1929	7
0	4978943	1930	3
0	4981542	1931	11
0	4984264	1932	0
0	4986838	1933	2
0	4989508	1934	3
0	4992145	1935	0
0	4994804	1936	0
0	4997647	1937	2
0	5000134	1938	0
0	5002518	1939	0
0	5004898	1940	2
0	5007189	1941	3
0	5009772	1942	0
0	5012257	1943	0
0	5015146	1944	0
0	5017608	1945	0
0	5020251	1946	0
0	5022860	1947	0
0	5025307	1948	0
0	5027892	1949	0
0	5030234	1950	0
0	5032867	1951	1
0	5035338	1952	0
0	5038059	1953	0
0	5040722	1954	0
0	5043310	1955	0
0	5045820	1956	3
0	5048652	1957	2
0	5051359	1958	0
0	5053682	1959	0
0	5056101	1960	2
0	5058525	1961	2
0	5060869	1962	0
0	5063545	1963	0
0	5066148	1964	5
0	5068606	1965	0
0	5071417	1966	6
0	5074138	1967	0
0	5076975	1968	10
0	5079513	1969	2
0	5082128	1970	1
0	5084634	1971	1
0	5087328	1972	0
0	5090184	1973	5
0	5092637	1974	0
0	5095417	1975	0
0	5098297	1976	4
0	5100705	1977	0
0	5103236	1978	5
0	5105643	1979	0
0	5108173	1980	10
0	5110704	1981	1
0	5113386	1982	2
0	5115971	1983	0
0	5118629	1984	3
0	5121402	1985	0
0	5124265	1986	0
0	5126480	1987	0
0	5129255	1988	2
0	5131785	1989	9
0	5134495	1990	0
0	5136876	1991	5
0	5139462	1992	7
0	5141841	1993	0
0	5144280	1994	0
0	5147003	1995	1
0	5149563	1996	2
0	5152488	1997	0
0	5155178	1998	0
0	5157852	1999	0
0	5160517	2000	2
0	5163276	2001	4
0	5166165	2002	0
0	5168858	2003	3
0	5171625	2004	7
0	5174201	2005	0
0	5176835	2006	0
0	5179501	2007	0
0	5182074	2008	7
0	5184786	2009	0
0	5187366	2010	1
0	5189853	2011	0
0	5192437	2012	0
0	5195073	2013	5
0	5197645	2014	0
0	5199996	2015	0
0	5202570	2016	0
0	5205126	2017	1
0	5207551	2018	0
0	5210307	2019	10
0	5213069	2020	0
0	5215638	2021	0
0	5218170	2022	0
0	5220861	2023	2
0	5223355	2024	0
0	5225829	2025	3
0	5228323	2026	1
0	5230776	2027	0
0	5233269	2028	0
0	5235891	2029	3
0	5238364	2030	0
0	5240816	2031	0
0	5243482	2032	0
0	5246180	2033	0
0	5248736	2034	0
0	5251378	2035	0
0	5253954	2036	0
0	5256682	2037	0
0	5259098	2038	3
0	5261744	2039	3
0	5264329	2040	0
0	5267026	2041	0
0	5269580	2042	0
0	5272216	2043	2
0	5274837	2044	1
0	5277400	2045	0
0	5279958	2046	0
0	5282399	2047	0
0	5285056	2048	2
0	5287736	2049	1
0	5290454	2050	7
0	5293058	2051	2
0	5295423	2052	0
0	5298291	2053	1
0	5300900	2054	0
0	5303323	2055	0
0	5306067	2056	0
0	5308529	2057	0
0	5311089	2058	4
0	5313680	2059	0
0	5316141	2060	1
0	5318779	2061	2
0	5321131	2062	2
0	5323541	2063	4
0	5326201	2064	0
0	5328963	2065	1
0	5331727	2066	1
0	5334457	2067	1
0	5336721	2068	0
0	5339577	2069	0
0	5342468	2070	0
0	5344938	2071	0
0	5347492	2072	0
0	5349971	2073	7
0	5352591	2074	0
0	5355193	2075	10
0	5357722	2076	5
0	5360564	2077	0
0	5363272	2078	2
0	5365790	2079	0
0	5368775	2080	0
0	5371326	2081	0
0	5373994	2082	0
0	5376634	2083	3
0	5379050	2084	0
0	5381580	2085	1
0	5384024	2086	0
0	5386373	2087	0
0	5388878	2088	0
0	5391361	2089	0
0	5394137	2090	1
0	5396535	2091	0
0	5398892	2092	0
0	5401513	2093	0
0	5404367	2094	0
0	5406835	2095	0
0	5409447	2096	2
0	5412080	2097	3
0	5414845	2098	4
0	5417146	2099	0
0	5419618	2100	6
0	5422337	2101	0
0	5424844	2102	0
0	5427319	2103	6
0	5429967	2104	0
0	5432611	2105	9
0	5435046	2106	4
0	5437440	2107	0
0	5439878	2108	0
0	5442367	2109	2
0	5444796	2110	0
0	5447468	2111	0
0	5449821	2112	0
0	5452339	2113	1
0	5454694	2114	2
0	5457203	2115	0
0	5459772	2116	0
0	5462291	2117	3
0	5464755	2118	4
0	5467293	2119	0
0	5469947	2120	0
0	5472516	2121	7
0	5475028	2122	2
0	5477482	2123	2
0	5479873	2124	6
0	5482419	2125	8
0	5485031	2126	0
0	5487668	2127	0
0	5489918	2128	1
0	5492272	2129	4
0	5494760	2130	2
0	5497479	2131	0
0	5499792	2132	0
0	5502582	2133	1
0	5505250	2134	0
0	5507666	2135	2
0	5510467	2136	0
0	5513104	2137	2
0	5515965	2138	2
0	5518242	2139	0
0	5520881	2140	1
0	5523387	2141	0
0	5525915	2142	5
0	5528558	2143	1
0	5531211	2144	3
0	5533728	2145	0
0	5536255	2146	4
0	5538649	2147	0
0	5541360	2148	0
0	5544003	2149	0
0	5546729	2150	0
0	5549391	2151	4
0	5551976	2152	3
0	5554425	2153	0
0	5557144	2154	1
0	5559821	2155	0
0	5562445	2156	0
0	5565159	2157	3
0	5567902	2158	2
0	5570278	2159	0
0	5572787	2160	12
0	5575296	2161	0
0	5577930	2162	4
0	5580607	2163	0
0	5583129	2164	0
0	5585739	2165	0
0	5588384	2166	1
0	5591066	2167	0
0	5593479	2168	0
0	5596123	2169	0
0	5598667	2170	1
0	5601111	2171	10
0	5603733	2172	0
0	5606265	2173	2
0	5608887	2174	0
0	5611667	2175	0
0	5614233	2176	1
0	5616731	2177	0
0	5619225	2178	0
0	5621871	2179	0
0	5624545	2180	0
0	5627122	2181	0
0	5629852	2182	0
0	5632248	2183	3
0	5635211	2184	9
0	5638049	2185	0
0	5640835	2186	8
0	5643323	2187	0
0	5645850	2188	1
0	5648632	2189	0
0	5651282	2190	0
0	5653676	2191	0
0	5656341	2192	4
0	5658726	2193	0
0	5661349	2194	0
0	5663871	2195	2
0	5666640	2196	8
0	5669551	2197	3
0	5672148	2198	0
0	5674696	2199	1
0	5677453	2200	0
0	5680088	2201	1
0	5682849	2202	0
0	5685587	2203	1
0	5688105	2204	0
0	5690423	2205	4
0	5692907	2206	0
0	5695644	2207	2
0	5698088	2208	0
0	5700749	2209	0
0	5703280	2210	1
0	5705804	2211	2
0	5708383	2212	0
0	5711078	2213	3
0	5713634	2214	0
0	5715930	2215	1
0	5718360	2216	0
0	5720892	2217	0
0	5723632	2218	1
0	5726146	2219	0
0	5728684	2220	0
0	5731465	2221	1
0	5734046	2222	0
0	5736724	2223	0
0	5739116	2224	1
0	5741781	2225	2
0	5744248	2226	0
0	5746638	2227	1
0	5749328	2228	6
0	5751938	2229	8
0	5754365	2230	0
0	5756799	2231	0
0	5759523	2232	0
0	5762330	2233	5
0	5765006	2234	2
0	5767672	2235	4
0	5770220	2236	0
0	5772830	2237	0
0	5775428	2238	0
0	5777847	2239	0
0	5780360	2240	0
0	5783419	2241	9
0	5785775	2242	1
0	5788363	2243	0
0	5790994	2244	0
0	5793528	2245	0
0	5796178	2246	0
0	5799084	2247	0
0	5801720	2248	2
0	5804203	2249	0
0	5806695	2250	0
0	5809202	2251	11
0	5811774	2252	1
0	5814272	2253	1
0	5816627	2254	2
0	5819154	2255	3
0	5821786	2256	5
0	5824573	2257	1
0	5827423	2258	6
0	5829928	2259	2
0	5832431	2260	0
0	5834988	2261	0
0	5837478	2262	2
0	5840139	2263	0
0	5842543	2264	0
0	5845170	2265	0
0	5847643	2266	0
0	5850030	2267	5
0	5852731	2268	0
0	5855356	2269	5
0	5857864	2270	0
0	5860556	2271	0
0	5863127	2272	2
0	5865732	2273	0
0	5868327	2274	3
0	5870675	2275	1
0	5873442	2276	3
0	5875679	2277	0
0	5877867	2278	0
0	5880199	2279	3
0	5883015	2280	3
0	5885529	2281	4
0	5888052	2282	3
0	5890654	2283	0
0	5893447	2284	8
0	5896052	2285	0
0	5898596	2286	1
0	5901141	2287	0
0	5903694	2288	1
0	5906312	2289	1
0	5908988	2290	0
0	5911195	2291	1
0	5913702	2292	0
0	5916542	2293	0
0	5919185	2294	0
0	5921305	2295	0
0	5923770	2296	2
0	5926391	2297	0
0	5929140	2298	4
0	5931556	2299	3
0	5934147	2300	7
0	5936800	2301	0
0	5939390	2302	0
0	5942082	2303	7
0	5944544	2304	4
0	5947112	2305	1
0	5949587	2306	0
0	5952068	2307	0
0	5954568	2308	0
0	5956733	2309	2
0	5959347	2310	0
0	5961653	2311	4
0	5964453	2312	0
0	5966848	2313	0
0	5969162	2314	0
0	5971892	2315	2
0	5974854	2316	0
0	5977310	2317	1
0	5979694	2318	0
0	5982423	2319	1
0	5985083	2320	0
0	5987644	2321	1
0	5990400	2322	3
0	5993197	2323	11
0	5995743	2324	0
0	5998424	2325	2
0	6001241	2326	0
0	6003998	2327	0
0	6006757	2328	2
0	6009377	2329	1
0	6012099	2330	0
0	6014788	2331	3
0	6017287	2332	1
0	6019585	2333	0
0	6022153	2334	0
0	6024748	2335	3
0	6027300	2336	0
0	6029712	2337	7
0	6032524	2338	0
0	6035145	2339	0
0	6037683	2340	4
0	6040353	2341	1
0	6042857	2342	0
0	6045502	2343	0
0	6048351	2344	5
0	6050942	2345	0
0	6053468	2346	4
0	6056045	2347	0
0	6058570	2348	1
0	6061070	2349	0
0	6063781	2350	0
0	6066339	2351	1
0	6069034	2352	2
0	6071458	2353	0
0	6073720	2354	6
0	6076165	2355	4
0	6078832	2356	0
0	6081300	2357	0
0	6083800	2358	2
0	6086500	2359	3
0	6089112	2360	0
0	6091649	2361	0
0	6094259	2362	0
0	6096958	2363	0
0	6099625	2364	0
0	6102147	2365	1
0	6104782	2366	0
0	6107088	2367	0
0	6109632	2368	9
0	6112283	2369	0
0	6114794	2370	0
0	6117294	2371	0
0	6119777	2372	2
0	6122254	2373	2
0	6124630	2374	2
0	6127149	2375	0
0	6129763	2376	0
0	6132551	2377	0
0	6135201	2378	3
0	6137789	2379	4
0	6140317	2380	3
0	6142912	2381	0
0	6145483	2382	0
0	6147878	2383	0
0	6150398	2384	0
0	6153047	2385	0
0	6155603	2386	8
0	6158553	2387	1
0	6161266	2388	0
0	6164009	2389	0
0	6166796	2390	9
0	6169587	2391	1
0	6172285	2392	0
0	6174951	2393	0
0	6177709	2394	0
0	6180330	2395	4
0	6182729	2396	0
0	6185336	2397	0
0	6187906	2398	0
0	6190357	2399	0
0	6192950	2400	0
0	6195431	2401	0
0	6198007	2402	0
0	6200851	2403	0
0	6203381	2404	0
0	6205849	2405	0
0	6208509	2406	0
0	6211282	2407	2
0	6213773	2408	5
0	6216418	2409	0
0	6219001	2410	3
0	6221583	2411	0
0	6224307	2412	0
0	6226821	2413	0
0	6229594	2414	2
0	6232081	2415	5
0	6234792	2416	8
0	6237198	2417	3
0	6239706	2418	0
0	6242374	2419	0
0	6244911	2420	0
0	6247316	2421	0
0	6249953	2422	2
0	6252718	2423	0
0	6255386	2424	2
0	6258094	2425	2
0	6260656	2426	1
0	6263176	2427	1
0	6265600	2428	1
0	6268275	2429	4
0	6270923	2430	0
0	6273546	2431	3
0	6276160	2432	0
0	6278538	2433	1
0	6281140	2434	0
0	6283703	2435	7
0	6286562	2436	0
0	6289102	2437	0
0	6291677	2438	0
0	6294276	2439	0
0	6296880	2440	1
0	6299311	2441	1
0	6301597	2442	0
0	6304135	2443	1
0	6306867	2444	1
0	6309467	2445	0
0	6312148	2446	0
0	6314845	2447	0
0	6317680	2448	8
0	6320104	2449	0
0	6322665	2450	1
0	6325166	2451	0
0	6327749	2452	0
0	6330153	2453	5
0	6332637	2454	2
0	6335218	2455	0
0	6337763	2456	0
0	6340346	2457	0
0	6342793	2458	9
0	6345388	2459	0
0	6347862	2460	3
0	6350449	2461	0
0	6353087	2462	0
0	6355676	2463	0
0	6358478	2464	3
0	6361124	2465	0
0	6363881	2466	0
0	6366406	2467	0
0	6369030	2468	0
0	6371579	2469	3
0	6374035	2470	1
0	6376774	2471	4
0	6379518	2472	2
0	6381999	2473	0
0	6384552	2474	0
0	6387050	2475	0
0	6389637	2476	0
0	6391823	2477	0
0	6394461	2478	1
0	6397098	2479	0
0	6399520	2480	1
0	6402086	2481	0
0	6404716	2482	3
0	6407275	2483	4
0	6409828	2484	12
0	6412337	2485	0
0	6414859	2486	0
0	6417468	2487	1
0	6420361	2488	0
0	6423097	2489	6
0	6425799	2490	1
0	6428497	2491	1
0	6431079	2492	0
0	6433441	2493	8
0	6435912	2494	1
0	6438219	2495	1
0	6440675	2496	0
0	6443081	2497	13
0	6445620	2498	0
0	6448158	2499	5
0	6450734	2500	8
0	6453207	2501	3
0	6455925	2502	9
0	6458619	2503	1
0	6461170	2504	0
0	6463760	2505	2
0	6466268	2506	0
0	6468922	2507	0
0	6471679	2508	0
0	6474117	2509	1
0	6476725	2510	1
0	6479144	2511	0
0	6481602	2512	0
0	6484458	2513	0
0	6486890	2514	0
0	6489707	2515	2
0	6492358	2516	1
0	6495026	2517	0
0	6497593	2518	1
0	6500420	2519	6
0	6502941	2520	0
0	6505447	2521	0
0	6507548	2522	0
0	6510177	2523	0
0	6512761	2524	1
0	6515265	2525	4
0	6517903	2526	2
0	6520575	2527	1
0	6522928	2528	1
0	6525534	2529	0
0	6528220	2530	4
0	6530955	2531	0
0	6533583	2532	7
0	6536193	2533	0
0	6538892	2534	2
0	6541472	2535	0
0	6544025	2536	0
0	6546803	2537	1
0	6549502	2538	0
0	6551990	2539	1
0	6554514	2540	1
0	6557261	2541	0
0	6559898	2542	0
0	6562545	2543	4
0	6565220	2544	1
0	6567825	2545	0
0	6570491	2546	6
0	6573127	2547	1
0	6575777	2548	2
0	6578363	2549	1
0	6581096	2550	0
0	6583835	2551	2
0	6586661	2552	1
0	6589090	2553	1
0	6591850	2554	0
0	6594415	2555	1
0	6597033	2556	0
0	6599856	2557	6
0	6602349	2558	0
0	6604892	2559	4
0	6607237	2560	4
0	6609708	2561	0
0	6612274	2562	2
0	6614893	2563	0
0	6617354	2564	1
0	6619758	2565	1
0	6622351	2566	5
0	6624968	2567	0
0	6627509	2568	0
0	6630178	2569	0
0	6632580	2570	0
0	6635182	2571	0
0	6637844	2572	0
0	6640401	2573	0
0	6643063	2574	0
0	6645933	2575	0
0	6648748	2576	4
0	6651019	2577	0
0	6653643	2578	3
0	6656431	2579	0
0	6658981	2580	0
0	6661366	2581	7
0	6663788	2582	0
0	6666249	2583	1
0	6668870	2584	3
0	6671474	2585	1
0	6673738	2586	2
0	6675971	2587	0
0	6678633	2588	0
0	6681294	2589	5
0	6684105	2590	0
0	6686700	2591	0
0	6689365	2592	0
0	6691870	2593	0
0	6694463	2594	3
0	6697000	2595	2
0	6699723	2596	0
0	6702222	2597	0
0	6704706	2598	2
0	6707103	2599	1
0	6709555	2600	7
0	6712345	2601	5
0	6714863	2602	3
0	6717200	2603	2
0	6719447	2604	0
0	6722289	2605	7
0	6725003	2606	0
0	6727404	2607	14
0	6730093	2608	0
0	6732745	2609	4
0	6735428	2610	7
0	6738044	2611	0
0	6740451	2612	0
0	6742974	2613	2
0	6745716	2614	0
0	6748440	2615	0
0	6751145	2616	0
0	6753826	2617	0
0	6756382	2618	0
0	6758911	2619	0
0	6761449	2620	0
0	6763945	2621	0
0	6766616	2622	6
0	6769251	2623	3
0	6771771	2624	6
0	6774419	2625	1
0	6777202	2626	2
0	6779644	2627	0
0	6782136	2628	0
0	6784670	2629	1
0	6787240	2630	1
0	6789792	2631	0
0	6792332	2632	0
0	6794734	2633	0
0	6797242	2634	1
0	6799857	2635	0
0	6802465	2636	8
0	6805269	2637	0
0	6807910	2638	1
0	6810604	2639	3
0	6813341	2640	0
0	6816046	2641	3
0	6818693	2642	0
0	6821124	2643	1
0	6823607	2644	2
0	6826399	2645	2
0	6829114	2646	0
0	6831805	2647	0
0	6834538	2648	3
0	6837149	2649	0
0	6839665	2650	2
0	6841966	2651	7
0	6844706	2652	0
0	6847225	2653	4
0	6849754	2654	5
0	6852318	2655	0
0	6854754	2656	2
0	6857318	2657	2
0	6859867	2658	1
0	6862808	2659	0
0	6865340	2660	6
0	6868126	2661	4
0	6870944	2662	1
0	6873706	2663	7
0	6876491	2664	1
0	6879162	2665	0
0	6881888	2666	3
0	6884388	2667	0
0	6887196	2668	0
0	6889821	2669	0
0	6892570	2670	0
0	6895020	2671	0
0	6897656	2672	0
0	6900046	2673	0
0	6902628	2674	0
0	6905165	2675	1
0	6907379	2676	0
0	6909871	2677	0
0	6912699	2678	0
0	6915290	2679	0
0	6917941	2680	5
0	6920676	2681	2
0	6923131	2682	2
0	6925739	2683	2
0	6928352	2684	4
0	6931184	2685	0
0	6934010	2686	12
0	6936833	2687	1
0	6939196	2688	0
0	6941789	2689	0
0	6944087	2690	0
0	6946627	2691	2
0	6949300	2692	0
0	6951844	2693	0
0	6954342	2694	0
0	6956873	2695	0
0	6959356	2696	0
0	6961967	2697	4
0	6964491	2698	0
0	6967093	2699	0
0	6969461	2700	0
0	6971895	2701	3
0	6974709	2702	0
0	6977333	2703	1
0	6979871	2704	0
0	6982370	2705	0
0	6984915	2706	0
0	6987578	2707	0
0	6990042	2708	0
0	6992634	2709	0
0	6995453	2710	0
0	6998164	2711	0
0	7000976	2712	1
0	7003513	2713	1
0	7006181	2714	4
0	7008800	2715	1
0	7011138	2716	4
0	7013843	2717	2
0	7016607	2718	2
0	7019191	2719	0
0	7021923	2720	0
0	7024540	2721	0
0	7027147	2722	1
0	7029446	2723	0
0	7031892	2724	0
0	7034271	2725	4
0	7036773	2726	0
0	7039251	2727	7
0	7041720	2728	0
0	7044537	2729	0
0	7046967	2730	0
0	7049569	2731	2
0	7052147	2732	1
0	7054843	2733	0
0	7057470	2734	0
0	7059909	2735	0
0	7062476	2736	0
0	7064864	2737	2
0	7067402	2738	1
0	7070196	2739	0
0	7072717	2740	0
0	7075278	2741	1
0	7077853	2742	4
0	7080406	2743	1
0	7083186	2744	15
0	7085875	2745	1
0	7088417	2746	1
0	7090969	2747	2
0	7093585	2748	0
0	7096201	2749	0
0	7098799	2750	1
0	7101289	2751	1
0	7103998	2752	0
0	7106781	2753	1
0	7109192	2754	0
0	7111645	2755	0
0	7114264	2756	1
0	7116928	2757	0
0	7119552	2758	1
0	7121937	2759	2
0	7124381	2760	0
0	7126604	2761	0
0	7129009	2762	5
0	7131652	2763	2
0	7134120	2764	0
0	7136863	2765	0
0	7139738	2766	7
0	7142320	2767	0
0	7144653	2768	0
0	7147270	2769	0
0	7149765	2770	5
0	7152530	2771	2
0	7154930	2772	2
0	7157185	2773	0
0	7159777	2774	6
0	7162023	2775	0
0	7164638	2776	1
0	7167417	2777	0
0	7169950	2778	0
0	7172336	2779	2
0	7174957	2780	3
0	7177529	2781	0
0	7179947	2782	3
0	7182734	2783	0
0	7185302	2784	0
0	7187848	2785	0
0	7190389	2786	0
0	7192962	2787	1
0	7195458	2788	0
0	7198137	2789	0
0	7200558	2790	2
0	7202967	2791	0
0	7205475	2792	0
0	7208230	2793	2
0	7210897	2794	3
0	7213419	2795	2
0	7215866	2796	1
0	7218458	2797	0
0	7221081	2798	1
0	7223881	2799	1
0	7226220	2800	4
0	7228842	2801	1
0	7231407	2802	0
0	7233779	2803	0
0	7236325	2804	0
0	7238839	2805	0
0	7241403	2806	0
0	7244130	2807	4
0	7246728	2808	1
0	7249279	2809	0
0	7251873	2810	3
0	7254544	2811	0
0	7256960	2812	0
0	7259485	2813	0
0	7262113	2814	0
0	7264733	2815	4
0	7267288	2816	0
0	7269840	2817	1
0	7272296	2818	1
0	7274842	2819	0
0	7277534	2820	0
0	7280081	2821	0
0	7282565	2822	1
0	7285179	2823	1
0	7287744	2824	0
0	7290312	2825	2
0	7293034	2826	0
0	7295507	2827	0
0	7298061	2828	0
0	7300298	2829	0
0	7302837	2830	1
0	7305391	2831	0
0	7307860	2832	0
0	7310483	2833	2
0	7313131	2834	0
0	7315510	2835	1
0	7318245	2836	5
0	7320784	2837	2
0	7323093	2838	0
0	7326026	2839	7
0	7328715	2840	1
0	7331151	2841	0
0	7333415	2842	0
0	7335374	2843	2
0	7337749	2844	1
0	7340096	2845	1
0	7342656	2846	0
0	7345181	2847	0
0	7347661	2848	0
0	7350284	2849	0
0	7353012	2850	3
0	7355699	2851	1
0	7358472	2852	0
0	7361010	2853	0
0	7363378	2854	0
0	7365948	2855	3
0	7368785	2856	5
0	7371609	2857	0
0	7374120	2858	1
0	7376782	2859	0
0	7379432	2860	3
0	7382192	2861	5
0	7385062	2862	0
0	7387606	2863	2
0	7390097	2864	0
0	7392695	2865	8
0	7395388	2866	1
0	7398077	2867	2
0	7400545	2868	0
0	7403053	2869	0
0	7405662	2870	0
0	7408009	2871	0
0	7410490	2872	1
0	7413027	2873	4
0	7415546	2874	0
0	7418200	2875	7
0	7420933	2876	0
0	7422863	2877	0
0	7425157	2878	0
0	7427703	2879	0
0	7430400	2880	3
0	7433038	2881	0
0	7435477	2882	4
0	7437893	2883	0
0	7440538	2884	1
0	7443065	2885	1
0	7445529	2886	0
0	7447983	2887	0
0	7450725	2888	0
0	7453173	2889	0
0	7455739	2890	0
0	7458314	2891	0
0	7460813	2892	0
0	7463434	2893	0
0	7466147	2894	0
0	7468764	2895	0
0	7471329	2896	0
0	7473905	2897	0
0	7476408	2898	2
0	7479289	2899	0
0	7481757	2900	2
0	7484080	2901	0
0	7486875	2902	6
0	7489356	2903	2
0	7492096	2904	0
0	7494594	2905	3
0	7497264	2906	0
0	7499969	2907	0
0	7502480	2908	0
0	7504888	2909	0
0	7507250	2910	4
0	7509895	2911	3
0	7512602	2912	5
0	7515323	2913	0
0	7517871	2914	0
0	7520245	2915	0
0	7522707	2916	3
0	7525288	2917	5
0	7528118	2918	6
0	7530754	2919	0
0	7533157	2920	0
0	7535751	2921	4
0	7538261	2922	1
0	7540931	2923	7
0	7543664	2924	0
0	7545911	2925	0
0	7548614	2926	0
0	7551213	2927	0
0	7553531	2928	2
0	7556009	2929	0
0	7558461	2930	0
0	7560926	2931	0
0	7563408	2932	0
0	7565802	2933	0
0	7568314	2934	3
0	7570977	2935	0
0	7573608	2936	6
0	7576517	2937	0
0	7578991	2938	25
0	7581822	2939	6
0	7584365	2940	1
0	7586945	2941	7
0	7589464	2942	1
0	7592231	2943	0
0	7594316	2944	2
0	7596781	2945	8
0	7599453	2946	3
0	7602195	2947	2
0	7604920	2948	0
0	7607440	2949	0
0	7610052	2950	1
0	7612336	2951	7
0	7614812	2952	5
0	7617357	2953	0
0	7620151	2954	1
0	7622893	2955	5
0	7625479	2956	0
0	7628149	2957	0
0	7630748	2958	0
0	7633440	2959	9
0	7635973	2960	0
0	7638502	2961	0
0	7641295	2962	0
0	7644109	2963	0
0	7646649	2964	0
0	7649221	2965	0
0	7651839	2966	0
0	7654360	2967	3
0	7657188	2968	0
0	7659703	2969	1
0	7662044	2970	0
0	7664619	2971	0
0	7667177	2972	0
0	7669875	2973	0
0	7672864	2974	0
0	7675126	2975	0
0	7677523	2976	1
0	7680320	2977	1
0	7682900	2978	9
0	7685660	2979	0
0	7688148	2980	0
0	7690511	2981	0
0	7692842	2982	0
0	7695440	2983	2
0	7698325	2984	0
0	7700932	2985	1
0	7703523	2986	0
0	7705965	2987	1
0	7708501	2988	4
0	7711317	2989	2
0	7713841	2990	0
0	7716313	2991	0
0	7718729	2992	0
0	7721465	2993	4
0	7724151	2994	1
0	7726541	2995	0
0	7728993	2996	5
0	7731470	2997	0
0	7733739	2998	0
0	7736221	2999	0
0	7738789	3000	4
0	7741182	3001	2
0	7743628	3002	4
0	7746106	3003	0
0	7748437	3004	0
0	7750817	3005	2
0	7753178	3006	0
0	7755726	3007	0
0	7758132	3008	4
0	7760728	3009	1
0	7763352	3010	1
0	7766141	3011	0
0	7768643	3012	5
0	7771114	3013	1
0	7773593	3014	0
0	7776110	3015	0
0	7778570	3016	0
0	7781210	3017	0
0	7783664	3018	1
0	7785954	3019	0
0	7788509	3020	0
0	7791206	3021	1
0	7793940	3022	5
0	7796515	3023	5
0	7798765	3024	0
0	7801163	3025	0
0	7803695	3026	1
0	7806200	3027	0
0	7809007	3028	0
0	7811646	3029	6
0	7813953	3030	0
0	7816472	3031	3
0	7819001	3032	1
0	7821368	3033	0
0	7824215	3034	0
0	7826968	3035	0
0	7829391	3036	0
0	7831871	3037	1
0	7834371	3038	2
0	7836893	3039	3
0	7839290	3040	1
0	7841977	3041	0
0	7844546	3042	0
0	7847000	3043	0
0	7849592	3044	0
0	7852108	3045	0
0	7854992	3046	0
0	7857625	3047	0
0	7860105	3048	0
0	7862397	3049	1
0	7864827	3050	4
0	7867614	3051	5
0	7870286	3052	4
0	7872929	3053	7
0	7875631	3054	6
0	7878342	3055	0
0	7880779	3056	1
0	7883517	3057	0
0	7886241	3058	0
0	7889031	3059	0
0	7891518	3060	1
0	7894394	3061	5
0	7897008	3062	0
0	7899709	3063	0
0	7902308	3064	4
0	7905091	3065	4
0	7907643	3066	0
0	7910139	3067	0
0	7912360	3068	0
0	7915019	3069	0
0	7917657	3070	2
0	7920484	3071	2
0	7923166	3072	3
0	7925729	3073	0
0	7928464	3074	5
0	7930930	3075	0
0	7933463	3076	0
0	7935872	3077	3
0	7938563	3078	0
0	7941162	3079	0
0	7943711	3080	1
0	7946239	3081	0
0	7949004	3082	0
0	7951654	3083	0
0	7954386	3084	2
0	7957059	3085	0
0	7959581	3086	0
0	7962186	3087	0
0	7964919	3088	7
0	7967966	3089	8
0	7970642	3090	0
0	7973471	3091	0
0	7975862	3092	0
0	7978229	3093	0
0	7980829	3094	3
0	7983387	3095	0
0	7986004	3096	3
0	7988440	3097	0
0	7990944	3098	4
0	7993478	3099	0
0	7995884	3100	1
0	7998393	3101	3
0	8001090	3102	0
0	8003384	3103	0
0	8006026	3104	0
0	8008740	3105	0
0	8011326	3106	1
0	8013929	3107	1
0	8016750	3108	3
0	8019280	3109	0
0	8021747	3110	2
0	8024292	3111	9
0	8026909	3112	1
0	8029717	3113	0
0	8032506	3114	0
0	8034970	3115	0
0	8037396	3116	1
0	8039669	3117	3
0	8042496	3118	7
0	8045096	3119	0
0	8047742	3120	0
0	8050112	3121	1
0	8052653	3122	3
0	8055014	3123	0
0	8057595	3124	0
0	8060036	3125	3
0	8062660	3126	3
0	8065065	3127	2
0	8067486	3128	0
0	8070089	3129	0
0	8072632	3130	0
0	8075136	3131	0
0	8077782	3132	0
0	8080419	3133	0
0	8083196	3134	3
0	8085716	3135	0
0	8088278	3136	1
0	8090704	3137	0
0	8093318	3138	1
0	8096064	3139	0
0	8098442	3140	1
0	8100931	3141	0
0	8103438	3142	0
0	8105938	3143	5
0	8108377	3144	6
0	8110717	3145	2
0	8113317	3146	1
0	8116038	3147	0
0	8118573	3148	0
0	8121078	3149	0
0	8123814	3150	1
0	8126398	3151	2
0	8128887	3152	0
0	8131484	3153	0
0	8134134	3154	0
0	8136616	3155	0
0	8139351	3156	1
0	8142029	3157	0
0	8144629	3158	0
0	8147401	3159	2
0	8149821	3160	1
0	8152330	3161	0
0	8155040	3162	0
0	8157702	3163	0
0	8160290	3164	0
0	8163092	3165	0
0	8165592	3166	2
0	8168103	3167	0
0	8170623	3168	8
0	8173164	3169	15
0	8175835	3170	0
0	8178322	3171	1
0	8180943	3172	3
0	8183519	3173	5
0	8186050	3174	2
0	8188704	3175	0
0	8191265	3176	7
0	8194047	3177	1
0	8196681	3178	0
0	8199064	3179	0
0	8201547	3180	1
0	8204048	3181	0
0	8206857	3182	0
0	8209596	3183	1
0	8212181	3184	3
0	8214791	3185	4
0	8217300	3186	3
0	8219893	3187	0
0	8222549	3188	1
0	8225177	3189	2
0	8228030	3190	4
0	8230491	3191	1
0	8233073	3192	0
0	8235851	3193	0
0	8238443	3194	0
0	8240937	3195	1
0	8243467	3196	3
0	8246065	3197	0
0	8248687	3198	4
0	8251007	3199	0
0	8253548	3200	1
0	8255945	3201	2
0	8258700	3202	2
0	8261289	3203	0
0	8263608	3204	1
0	8266075	3205	0
0	8268555	3206	2
0	8271293	3207	4
0	8273820	3208	0
0	8276413	3209	2
0	8279024	3210	0
0	8281669	3211	0
0	8283985	3212	7
0	8286765	3213	3
0	8289289	3214	0
0	8291892	3215	3
0	8294602	3216	4
0	8297214	3217	0
0	8300186	3218	3
0	8302734	3219	0
0	8305225	3220	1
0	8308041	3221	1
0	8310551	3222	0
0	8313057	3223	0
0	8315727	3224	0
0	8318261	3225	4
0	8320428	3226	1
0	8323023	3227	0
0	8325612	3228	0
0	8328227	3229	0
0	8330912	3230	2
0	8333403	3231	0
0	8335753	3232	1
0	8338488	3233	3
0	8341124	3234	1
0	8343775	3235	6
0	8346290	3236	6
0	8349111	3237	0
0	8351423	3238	0
0	8353847	3239	0
0	8356593	3240	2
0	8359357	3241	0
0	8361923	3242	3
0	8364611	3243	0
0	8367179	3244	0
0	8369719	3245	3
0	8372516	3246	0
0	8375048	3247	0
0	8377460	3248	1
0	8379988	3249	0
0	8382388	3250	1
0	8384857	3251	0
0	8387329	3252	0
0	8389958	3253	1
0	8392687	3254	0
0	8395355	3255	9
0	8397673	3256	1
0	8400002	3257	0
0	8402681	3258	0
0	8405301	3259	5
0	8407951	3260	0
0	8410777	3261	1
0	8413378	3262	0
0	8415994	3263	0
0	8418359	3264	6
0	8420893	3265	0
0	8423476	3266	0
0	8426201	3267	0
0	8428426	3268	0
0	8431130	3269	0
0	8433676	3270	0
0	8436198	3271	0
0	8438889	3272	3
0	8441426	3273	1
0	8443876	3274	0
0	8446489	3275	1
0	8449023	3276	0
0	8451508	3277	2
0	8454005	3278	0
0	8456468	3279	0
0	8459260	3280	0
0	8461765	3281	1
0	8464512	3282	2
0	8467204	3283	1
0	8469855	3284	5
0	8472303	3285	3
0	8474776	3286	1
0	8477290	3287	4
0	8480054	3288	0
0	8482603	3289	0
0	8484934	3290	0
0	8487129	3291	5
0	8489537	3292	0
0	8492124	3293	4
0	8494687	3294	0
0	8497270	3295	0
0	8499825	3296	2
0	8502462	3297	7
0	8505151	3298	4
0	8507517	3299	5
0	8510043	3300	0
0	8512659	3301	2
0	8515398	3302	0
0	8517923	3303	0
0	8520483	3304	4
0	8523092	3305	0
0	8525617	3306	0
0	8528211	3307	0
0	8530532	3308	2
0	8533299	3309	0
0	8535750	3310	1
0	8537979	3311	1
0	8540784	3312	8
0	8543280	3313	0
0	8546048	3314	2
0	8548621	3315	0
0	8551313	3316	5
0	8553741	3317	0
0	8556063	3318	0
0	8558688	3319	0
0	8561244	3320	0
0	8563844	3321	1
0	8566635	3322	0
0	8569138	3323	1
0	8571288	3324	0
0	8573741	3325	0
0	8576299	3326	3
0	8578868	3327	2
0	8581531	3328	7
0	8584119	3329	2
0	8586708	3330	1
0	8589162	3331	0
0	8591642	3332	7
0	8594381	3333	1
0	8596945	3334	7
0	8599441	3335	0
0	8602107	3336	2
0	8604702	3337	2
0	8607397	3338	0
0	8610122	3339	0
0	8612590	3340	1
0	8615081	3341	0
0	8617331	3342	0
0	8619752	3343	0
0	8622143	3344	3
0	8624887	3345	0
0	8627398	3346	6
0	8629976	3347	0
0	8632633	3348	4
0	8635276	3349	0
0	8637792	3350	0
0	8640572	3351	0
0	8643185	3352	0
0	8645772	3353	1
0	8648498	3354	0
0	8651070	3355	1
0	8653467	3356	0
0	8656169	3357	0
0	8658799	3358	0
0	8661190	3359	1
0	8663627	3360	0
0	8666099	3361	1
0	8668310	3362	2
0	8670816	3363	2
0	8673540	3364	1
0	8676064	3365	0
0	8678390	3366	0
0	8680690	3367	0
0	8683269	3368	1
0	8685678	3369	0
0	8688226	3370	0
0	8690714	3371	0
0	8692921	3372	5
0	8695511	3373	0
0	8698004	3374	3
0	8700574	3375	0
0	8703039	3376	0
0	8705625	3377	0
0	8708477	3378	0
0	8710917	3379	0
0	8713457	3380	0
0	8716395	3381	0
0	8718956	3382	1
0	8721579	3383	0
0	8724079	3384	0
0	8726601	3385	0
0	8729082	3386	0
0	8731814	3387	0
0	8734504	3388	0
0	8737276	3389	0
0	8739612	3390	0
0	8741945	3391	7
0	8744642	3392	2
0	8747290	3393	1
0	8749855	3394	3
0	8752433	3395	0
0	8755059	3396	0
0	8757579	3397	0
0	8760083	3398	1
0	8762790	3399	0
0	8765556	3400	2
0	8768186	3401	0
0	8770717	3402	0
0	8772848	3403	0
0	8775468	3404	0
0	8777971	3405	0
0	8780588	3406	0
0	8783245	3407	1
0	8785943	3408	1
0	8788861	3409	3
0	8791711	3410	3
0	8794036	3411	0
0	8796666	3412	0
0	8799165	3413	2
0	8801679	3414	0
0	8804329	3415	0
0	8806860	3416	0
0	8809427	3417	5
0	8812050	3418	6
0	8814730	3419	2
0	8817127	3420	0
0	8819703	3421	0
0	8822361	3422	0
0	8824924	3423	1
0	8827350	3424	0
0	8829850	3425	0
0	8832361	3426	3
0	8835175	3427	3
0	8837844	3428	0
0	8840332	3429	10
0	8842832	3430	0
0	8845198	3431	7
0	8848109	3432	5
0	8850638	3433	1
0	8853319	3434	1
0	8855762	3435	0
0	8858563	3436	1
0	8861308	3437	0
0	8863841	3438	0
0	8866469	3439	3
0	8869134	3440	0
0	8871574	3441	6
0	8874179	3442	0
0	8876852	3443	0
0	8879004	3444	9
0	8881750	3445	9
0	8884231	3446	4
0	8887065	3447	2
0	8889420	3448	4
0	8892075	3449	7
0	8894816	3450	1
0	8897111	3451	0
0	8899221	3452	1
0	8902016	3453	0
0	8904497	3454	5
0	8907272	3455	6
0	8909776	3456	1
0	8912361	3457	7
0	8914970	3458	0
0	8917426	3459	0
0	8919998	3460	13
0	8922496	3461	8
0	8925005	3462	0
0	8927533	3463	0
0	8929933	3464	1
0	8932232	3465	0
0	8934670	3466	1
0	8937469	3467	1
0	8939894	3468	2
0	8942568	3469	1
0	8945173	3470	3
0	8947791	3471	0
0	8950279	3472	0
0	8952620	3473	4
0	8955129	3474	1
0	8957861	3475	1
0	8960520	3476	6
0	8963030	3477	0
0	8965698	3478	8
0	8968337	3479	4
0	8970774	3480	0
0	8973284	3481	0
0	8975810	3482	0
0	8978610	3483	0
0	8981100	3484	2
0	8983666	3485	3
0	8986278	3486	1
0	8988797	3487	0
0	8991283	3488	2
0	8993814	3489	0
0	8996470	3490	9
0	8998993	3491	0
0	9001455	3492	0
0	9004294	3493	1
0	9007007	3494	0
0	9009559	3495	0
0	9012045	3496	0
0	9014930	3497	4
0	9017758	3498	0
0	9020227	3499	0
0	9022862	3500	5
0	9025589	3501	0
0	9027955	3502	1
0	9030489	3503	0
0	9033268	3504	2
0	9035934	3505	0
0	9038651	3506	1
0	9041335	3507	0
0	9043866	3508	0
0	9046402	3509	0
0	9049006	3510	3
0	9051635	3511	5
0	9054250	3512	0
0	9057010	3513	2
0	9059261	3514	0
0	9061811	3515	1
0	9064325	3516	0
0	9066740	3517	0
0	9068868	3518	0
0	9071398	3519	0
0	9074043	3520	1
0	9076622	3521	0
0	9079343	3522	0
0	9081920	3523	0
0	9084347	3524	1
0	9086983	3525	1
0	9089425	3526	0
0	9091908	3527	0
0	9094515	3528	0
0	9097030	3529	2
0	9099497	3530	2
0	9102049	3531	0
0	9104803	3532	1
0	9107461	3533	0
0	9110017	3534	0
0	9112454	3535	1
0	9115081	3536	1
0	9117231	3537	0
0	9119820	3538	4
0	9122426	3539	1
0	9124824	3540	1
0	9127311	3541	3
0	9129886	3542	1
0	9132288	3543	0
0	9134986	3544	1
0	9137558	3545	0
0	9139983	3546	0
0	9142594	3547	12
0	9145308	3548	0
0	9147805	3549	0
0	9150381	3550	0
0	9152967	3551	0
0	9155076	3552	0
0	9157500	3553	0
0	9160333	3554	0
0	9162772	3555	0
0	9165072	3556	0
0	9167662	3557	0
0	9170351	3558	0
0	9172630	3559	0
0	9175351	3560	0
0	9177919	3561	3
0	9180527	3562	2
0	9183412	3563	0
0	9185997	3564	1
0	9188671	3565	2
0	9191237	3566	0
0	9193795	3567	0
0	9196613	3568	0
0	9199258	3569	0
0	9202126	3570	6
0	9204820	3571	0
0	9207508	3572	13
0	9209789	3573	0
0	9212362	3574	0
0	9215205	3575	0
0	9217921	3576	0
0	9220424	3577	0
0	9222754	3578	0
0	9225405	3579	0
0	9228047	3580	1
0	9230571	3581	0
0	9232941	3582	0
0	9235316	3583	0
0	9237709	3584	5
0	9240422	3585	3
0	9243076	3586	1
0	9245550	3587	0
0	9248002	3588	0
0	9250647	3589	0
0	9252945	3590	3
0	9255367	3591	0
0	9257820	3592	8
0	9260507	3593	1
0	9262964	3594	7
0	9265424	3595	0
0	9268145	3596	0
0	9270852	3597	0
0	9273315	3598	0
0	9275732	3599	1
0	9278083	3600	0
0	9280476	3601	2
0	9283100	3602	0
0	9285765	3603	0
0	9288404	3604	1
0	9291057	3605	0
0	9293574	3606	3
0	9295952	3607	0
0	9298658	3608	1
0	9301191	3609	0
0	9303583	3610	0
0	9306367	3611	0
0	9308735	3612	0
0	9311271	3613	2
0	9313877	3614	2
0	9316156	3615	2
0	9318516	3616	1
0	9321271	3617	0
0	9323998	3618	2
0	9326366	3619	5
0	9328933	3620	0
0	9331487	3621	0
0	9333915	3622	0
0	9336415	3623	3
0	9339102	3624	7
0	9341916	3625	1
0	9344386	3626	2
0	9346872	3627	0
0	9349538	3628	0
0	9352193	3629	6
0	9354842	3630	1
0	9357549	3631	0
0	9360078	3632	1
0	9362655	3633	3
0	9365422	3634	0
0	9367973	3635	6
0	9370694	3636	0
0	9373080	3637	0
0	9375309	3638	2
0	9377935	3639	1
0	9380812	3640	10
0	9383212	3641	1
0	9385705	3642	3
0	9388196	3643	4
0	9390899	3644	0
0	9393654	3645	1
0	9396271	3646	2
0	9398976	3647	3
0	9401524	3648	2
0	9404029	3649	0
0	9406710	3650	3
0	9409407	3651	0
0	9412045	3652	1
0	9414616	3653	3
0	9417281	3654	3
0	9419889	3655	1
0	9422737	3656	2
0	9425451	3657	0
0	9427962	3658	0
0	9430732	3659	0
0	9433434	3660	2
0	9436235	3661	0
0	9438700	3662	0
0	9440961	3663	1
0	9443551	3664	0
0	9445878	3665	2
0	9448349	3666	2
0	9451075	3667	1
0	9453615	3668	0
0	9455915	3669	7
0	9458455	3670	0
0	9461168	3671	1
0	9463530	3672	5
0	9466070	3673	0
0	9468762	3674	12
0	9471435	3675	0
0	9474038	3676	1
0	9476116	3677	0
0	9478631	3678	0
0	9481232	3679	4
0	9483798	3680	0
0	9486220	3681	0
0	9488708	3682	9
0	9491267	3683	1
0	9493765	3684	0
0	9496187	3685	0
0	9498571	3686	0
0	9501018	3687	6
0	9503821	3688	0
0	9506492	3689	1
0	9509199	3690	0
0	9511760	3691	0
0	9514302	3692	1
0	9516868	3693	5
0	9519299	3694	0
0	9521777	3695	0
0	9524388	3696	0
0	9526789	3697	2
0	9529459	3698	2
0	9532101	3699	0
0	9534771	3700	0
0	9537180	3701	0
0	9539444	3702	0
0	9542013	3703	0
0	9544386	3704	8
0	9546980	3705	1
0	9549535	3706	3
0	9552082	3707	0
0	9554654	3708	1
0	9556973	3709	1
0	9559433	3710	1
0	9562164	3711	1
0	9564894	3712	0
0	9567333	3713	0
0	9569982	3714	0
0	9572669	3715	0
0	9575184	3716	0
0	9577682	3717	0
0	9580102	3718	0
0	9582609	3719	4
0	9585197	3720	6
0	9587553	3721	0
0	9590076	3722	2
0	9592631	3723	3
0	9595320	3724	6
0	9598201	3725	0
0	9600931	3726	0
0	9603406	3727	0
0	9606090	3728	3
0	9608637	3729	0
0	9611127	3730	0
0	9613934	3731	0
0	9616672	3732	3
0	9619332	3733	3
0	9621746	3734	0
0	9624280	3735	1
0	9626869	3736	0
0	9629444	3737	0
0	9632024	3738	0
0	9634758	3739	1
0	9637402	3740	1
0	9640048	3741	1
0	9642512	3742	0
0	9645116	3743	0
0	9647654	3744	2
0	9650212	3745	0
0	9652691	3746	5
0	9655367	3747	5
0	9658261	3748	1
0	9660946	3749	1
0	9663419	3750	0
0	9665866	3751	0
0	9668392	3752	4
0	9670689	3753	2
0	9673069	3754	1
0	9675657	3755	0
0	9678183	3756	2
0	9680755	3757	0
0	9682987	3758	4
0	9685506	3759	0
0	9688067	3760	6
0	9690752	3761	2
0	9693276	3762	0
0	9695853	3763	0
0	9698477	3764	3
0	9701478	3765	3
0	9704210	3766	4
0	9706681	3767	0
0	9709429	3768	1
0	9711683	3769	0
0	9713889	3770	1
0	9716393	3771	1
0	9719126	3772	0
0	9721843	3773	0
0	9724510	3774	0
0	9727268	3775	0
0	9729986	3776	12
0	9732532	3777	3
0	9735163	3778	0
0	9737638	3779	0
0	9740053	3780	0
0	9742598	3781	1
0	9745031	3782	8
0	9747825	3783	0
0	9750511	3784	1
0	9753308	3785	0
0	9756149	3786	3
0	9758780	3787	0
0	9761161	3788	0
0	9763743	3789	2
0	9766549	3790	1
0	9768989	3791	1
0	9771654	3792	1
0	9774176	3793	0
0	9776776	3794	0
0	9779353	3795	0
0	9782010	3796	0
0	9784334	3797	2
0	9786928	3798	0
0	9789403	3799	0
0	9792020	3800	0
0	9794571	3801	0
0	9797264	3802	2
0	9799672	3803	0
0	9802307	3804	1
0	9804881	3805	3
0	9807075	3806	0
0	9809424	3807	0
0	9811707	3808	0
0	9814146	3809	0
0	9816509	3810	0
0	9819036	3811	0
0	9821589	3812	1
0	9824284	3813	0
0	9826813	3814	4
0	9829463	3815	1
0	9832071	3816	1
0	9834750	3817	3
0	9837371	3818	0
0	9840141	3819	0
0	9842559	3820	0
0	9845136	3821	1
0	9847919	3822	0
0	9850407	3823	3
0	9853075	3824	0
0	9855561	3825	3
0	9858051	3826	1
0	9860557	3827	7
0	9863206	3828	3
0	9865734	3829	0
0	9868427	3830	0
0	9870951	3831	0
0	9873355	3832	1
0	9875959	3833	1
0	9878597	3834	0
0	9881268	3835	0
0	9883888	3836	0
0	9886592	3837	0
0	9889139	3838	0
0	9891927	3839	0
0	9894248	3840	0
0	9897011	3841	0
0	9899483	3842	5
0	9901857	3843	1
0	9904421	3844	2
0	9906937	3845	5
0	9909439	3846	0
0	9911931	3847	6
0	9914463	3848	0
0	9917036	3849	5
0	9919345	3850	1
0	9921853	3851	13
0	9924403	3852	0
0	9926792	3853	0
0	9929468	3854	2
0	9932254	3855	0
0	9934986	3856	0
0	9937403	3857	2
0	9939859	3858	6
0	9942377	3859	3
0	9945034	3860	1
0	9948051	3861	0
0	9950428	3862	0
0	9952924	3863	0
0	9955577	3864	1
0	9958057	3865	4
0	9960627	3866	0
0	9963293	3867	3
0	9965932	3868	0
0	9968679	3869	3
0	9971179	3870	0
0	9973668	3871	0
0	9976085	3872	0
0	9978504	3873	0
0	9980890	3874	1
0	9983597	3875	2
0	9986208	3876	1
0	9988846	3877	0
0	9991476	3878	0
0	9994057	3879	0
0	9996657	3880	0
0	9999038	3881	0
0	10001582	3882	1
0	10004227	3883	0
0	10006384	3884	0
0	10008916	3885	0
0	10011569	3886	0
0	10013807	3887	0
0	10016343	3888	0
0	10018741	3889	0
0	10021129	3890	0
0	10023759	3891	0
0	10026128	3892	2
0	10028758	3893	0
0	10031567	3894	1
0	10034150	3895	0
0	10036779	3896	0
0	10039342	3897	0
0	10041947	3898	2
0	10044575	3899	5
0	10046978	3900	0
0	10049450	3901	0
0	10051990	3902	0
0	10054480	3903	0
0	10057224	3904	0
0	10059714	3905	3
0	10062425	3906	2
0	10064981	3907	2
0	10067596	3908	2
0	10070144	3909	0
0	10072764	3910	0
0	10075029	3911	0
0	10077422	3912	0
0	10079757	3913	0
0	10082453	3914	0
0	10084895	3915	1
0	10087404	3916	2
0	10089939	3917	3
0	10092443	3918	3
0	10095139	3919	3
0	10097886	3920	4
0	10100599	3921	2
0	10103172	3922	2
0	10105741	3923	4
0	10108367	3924	0
0	10110727	3925	0
0	10113350	3926	0
0	10116047	3927	1
0	10118621	3928	3
0	10121328	3929	0
0	10123941	3930	3
0	10126318	3931	0
0	10128853	3932	1
0	10131389	3933	5
0	10133987	3934	0
0	10136527	3935	0
0	10139284	3936	0
0	10141822	3937	6
0	10144453	3938	1
0	10147080	3939	0
0	10149749	3940	1
0	10152386	3941	2
0	10154971	3942	0
0	10157490	3943	3
0	10159971	3944	0
0	10162390	3945	0
0	10165010	3946	5
0	10167845	3947	0
0	10170529	3948	0
0	10173214	3949	0
0	10175714	3950	0
0	10178436	3951	2
0	10181310	3952	2
0	10183883	3953	0
0	10186644	3954	0
0	10189076	3955	0
0	10191458	3956	0
0	10194058	3957	0
0	10196603	3958	2
0	10198947	3959	0
0	10201600	3960	0
0	10204022	3961	1
0	10206683	3962	1
0	10209417	3963	0
0	10211937	3964	0
0	10214183	3965	2
0	10216531	3966	0
0	10219250	3967	1
0	10221796	3968	0
0	10224265	3969	0
0	10226995	3970	1
0	10229591	3971	0
0	10232317	3972	1
0	10234946	3973	0
0	10237250	3974	0
0	10239890	3975	0
0	10242416	3976	0
0	10244957	3977	1
0	10247623	3978	2
0	10250150	3979	1
0	10252741	3980	0
0	10254990	3981	0
0	10257640	3982	0
0	10260028	3983	0
0	10262517	3984	8
0	10265313	3985	0
0	10268081	3986	0
0	10270733	3987	7
0	10273455	3988	3
0	10276003	3989	0
0	10278293	3990	3
0	10281023	3991	3
0	10283517	3992	8
0	10286236	3993	0
0	10288774	3994	3
0	10291436	3995	6
0	10294224	3996	3
0	10296904	3997	2
0	10299624	3998	4
0	10302444	3999	1
0	10305074	4000	1
1	2649	1	47
1	5399	2	38
1	7940	3	45
1	10564	4	41
1	13292	5	31
1	15801	6	30
1	18517	7	25
1	21025	8	28
1	23288	9	51
1	25645	10	57
1	28096	11	34
1	30797	12	17
1	33335	13	10
1	35915	14	14
1	38426	15	7
1	41047	16	7
1	43717	17	9
1	46340	18	9
1	48829	19	11
1	51474	20	14
1	53996	21	1
1	56278	22	10
1	58649	23	0
1	61320	24	0
1	63636	25	1
1	66405	26	13
1	68818	27	26
1	71373	28	29
1	74167	29	34
1	76659	30	24
1	79000	31	11
1	81700	32	19
1	84233	33	30
1	86762	34	19
1	89393	35	28
1	91827	36	33
1	94376	37	23
1	97130	38	12
1	99776	39	25
1	102415	40	44
1	105069	41	28
1	107846	42	38
1	110226	43	56
1	112634	44	46
1	115282	45	52
1	118002	46	37
1	120638	47	33
1	123281	48	24
1	125605	49	34
1	128410	50	33
1	130978	51	21
1	133578	52	28
1	136356	53	16
1	138979	54	11
1	141715	55	14
1	144355	56	35
1	146911	57	25
1	149554	58	13
1	151906	59	27
1	154443	60	13
1	157072	61	17
1	159635	62	1
1	162085	63	6
1	164697	64	14
1	167392	65	24
1	169776	66	56
1	172541	67	57
1	175055	68	46
1	177736	69	40
1	180437	70	42
1	183068	71	43
1	185616	72	35
1	188294	73	38
1	190902	74	24
1	193387	75	32
1	195971	76	48
1	198716	77	49
1	201284	78	48
1	204033	79	52
1	206424	80	55
1	208871	81	53
1	211497	82	40
1	214217	83	41
1	216603	84	57
1	218988	85	52
1	221636	86	46
1	224299	87	54
1	226919	88	43
1	229450	89	43
1	232051	90	30
1	234592	91	40
1	237351	92	48
1	239808	93	38
1	242522	94	50
1	244944	95	36
1	247603	96	53
1	250134	97	55
1	252608	98	25
1	255165	99	21
1	257442	100	30
1	260133	101	27
1	262856	102	24
1	265683	103	30
1	268294	104	44
1	270860	105	37
1	273370	106	43
1	276052	107	53
1	278390	108	52
1	280893	109	36
1	283627	110	53
1	285944	111	51
1	288544	112	56
1	290928	113	46
1	293517	114	45
1	296279	115	39
1	298679	116	24
1	301145	117	46
1	303930	118	40
1	306307	119	52
1	308712	120	32
1	311289	121	42
1	313793	122	50
1	316083	123	58
1	318585	124	54
1	321029	125	38
1	323747	126	36
1	326375	127	20
1	328877	128	0
1	331351	129	0
1	334033	130	41
1	336553	131	46
1	339139	132	37
1	341679	133	47
1	343958	134	52
1	346339	135	46
1	348796	136	55
1	351213	137	56
1	353666	138	52
1	356208	139	45
1	358934	140	45
1	361496	141	53
1	364074	142	43
1	366659	143	54
1	369204	144	44
1	371917	145	45
1	374487	146	50
1	376978	147	47
1	379411	148	58
1	381776	149	51
1	384146	150	55
1	386628	151	36
1	389416	152	30
1	392043	153	57
1	394676	154	28
1	397287	155	41
1	399814	156	29
1	402389	157	53
1	405045	158	34
1	407753	159	26
1	410427	160	22
1	412968	161	13
1	415622	162	19
1	418290	163	29
1	420996	164	29
1	423599	165	6
1	426157	166	0
1	428598	167	8
1	431316	168	16
1	433770	169	12
1	436270	170	17
1	438722	171	9
1	440890	172	5
1	443493	173	20
1	446387	174	10
1	449171	175	33
1	452097	176	33
1	454746	177	18
1	457476	178	33
1	460026	179	54
1	462820	180	45
1	464912	181	57
1	467469	182	53
1	469979	183	44
1	472653	184	43
1	475123	185	27
1	477903	186	10
1	480564	187	4
1	483191	188	15
1	485755	189	8
1	488383	190	1
1	490906	191	21
1	493645	192	26
1	496202	193	15
1	498716	194	24
1	501224	195	51
1	503718	196	53
1	506337	197	18
1	509107	198	29
1	511775	199	37
1	514373	200	29
1	517116	201	13
1	519762	202	39
1	522301	203	44
1	524805	204	34
1	527461	205	44
1	530100	206	40
1	532484	207	41
1	535238	208	39
1	537820	209	58
1	540354	210	47
1	543042	211	50
1	545310	212	48
1	547759	213	45
1	550380	214	35
1	553241	215	43
1	556006	216	33
1	558552	217	25
1	561095	218	37
1	563614	219	22
1	566242	220	44
1	569007	221	53
1	571631	222	36
1	574139	223	27
1	576725	224	26
1	579175	225	42
1	581878	226	37
1	584593	227	38
1	587190	228	24
1	589891	229	21
1	592524	230	31
1	595294	231	28
1	597987	232	7
1	600612	233	14
1	603167	234	24
1	605625	235	0
1	608253	236	32
1	610606	237	55
1	613050	238	58
1	615844	239	52
1	618453	240	51
1	620966	241	50
1	623588	242	53
1	626173	243	35
1	629210	244	50
1	631812	245	54
1	634403	246	52
1	637079	247	40
1	639879	248	47
1	642363	249	53
1	645110	250	46
1	647823	251	27
1	650438	252	41
1	653077	253	49
1	655651	254	46
1	658566	255	40
1	661153	256	24
1	663886	257	46
1	666371	258	55
1	668815	259	47
1	671402	260	46
1	674219	261	24
1	676704	262	35
1	679250	263	56
1	681874	264	55
1	684618	265	32
1	687172	266	25
1	689854	267	41
1	692633	268	31
1	695218	269	37
1	697804	270	41
1	700632	271	32
1	703336	272	52
1	706042	273	44
1	708451	274	28
1	711236	275	37
1	713802	276	57
1	716186	277	34
1	718693	278	29
1	721309	279	22
1	724049	280	23
1	726557	281	14
1	729154	282	21
1	731887	283	22
1	734527	284	18
1	737078	285	1
1	739687	286	6
1	742265	287	25
1	744803	288	42
1	747571	289	42
1	750120	290	46
1	752752	291	32
1	755192	292	26
1	757972	293	33
1	760655	294	37
1	763516	295	54
1	766164	296	56
1	768572	297	16
1	771315	298	25
1	773940	299	24
1	776550	300	2
1	779140	301	5
1	781781	302	11
1	784491	303	19
1	787415	304	17
1	789882	305	18
1	792555	306	0
1	795103	307	21
1	797633	308	6
1	800270	309	37
1	803183	310	45
1	805695	311	48
1	808409	312	42
1	810848	313	44
1	813298	314	53
1	815652	315	37
1	817960	316	46
1	820592	317	51
1	822930	318	50
1	825447	319	39
1	828045	320	54
1	830735	321	48
1	833429	322	38
1	835950	323	35
1	838727	324	17
1	841276	325	27
1	844054	326	30
1	846567	327	40
1	849181	328	49
1	851673	329	41
1	854324	330	21
1	856795	331	30
1	859332	332	47
1	862052	333	44
1	864514	334	50
1	866715	335	55
1	869154	336	37
1	871518	337	15
1	874279	338	20
1	876824	339	12
1	879506	340	44
1	882200	341	50
1	884514	342	39
1	886996	343	54
1	889444	344	34
1	891997	345	19
1	894865	346	40
1	897366	347	34
1	900122	348	38
1	902616	349	37
1	905042	350	43
1	907595	351	45
1	910242	352	51
1	912975	353	52
1	915570	354	48
1	918267	355	23
1	921095	356	16
1	923706	357	17
1	926331	358	26
1	928985	359	20
1	931788	360	22
1	934443	361	8
1	936916	362	0
1	939499	363	23
1	942278	364	43
1	944958	365	28
1	947388	366	6
1	949596	367	1
1	951916	368	3
1	954602	369	25
1	957034	370	57
1	959385	371	40
1	962095	372	59
1	964576	373	54
1	966949	374	46
1	969476	375	56
1	972085	376	37
1	974486	377	14
1	977282	378	21
1	979857	379	24
1	982689	380	20
1	985184	381	27
1	987681	382	26
1	990537	383	27
1	993044	384	41
1	995775	385	47
1	998573	386	31
1	1001302	387	28
1	1003742	388	36
1	1006364	389	51
1	1008926	390	48
1	1011434	391	42
1	1013992	392	54
1	1016581	393	59
1	1018977	394	35
1	1021380	395	29
1	1023967	396	20
1	1026718	397	12
1	1029244	398	0
1	1031450	399	0
1	1033980	400	15
1	1036673	401	27
1	1039358	402	19
1	1041987	403	44
1	1044566	404	25
1	1047165	405	25
1	1049715	406	21
1	1052327	407	23
1	1055102	408	41
1	1057644	409	55
1	1060360	410	42
1	1062918	411	25
1	1065540	412	34
1	1068160	413	35
1	1070754	414	56
1	1073071	415	40
1	1075604	416	57
1	1078222	417	52
1	1080766	418	34
1	1083494	419	41
1	1086094	420	13
1	1088704	421	18
1	1091472	422	26
1	1094131	423	50
1	1096566	424	59
1	1099155	425	53
1	1101546	426	58
1	1103990	427	54
1	1106427	428	39
1	1109093	429	31
1	1111552	430	26
1	1114125	431	56
1	1116720	432	37
1	1119381	433	29
1	1122281	434	32
1	1125009	435	56
1	1127469	436	49
1	1130118	437	53
1	1133010	438	49
1	1135663	439	32
1	1137988	440	42
1	1140608	441	46
1	1143214	442	31
1	1145728	443	33
1	1148400	444	34
1	1150898	445	36
1	1153635	446	35
1	1156151	447	26
1	1158838	448	0
1	1161310	449	4
1	1163843	450	27
1	1166334	451	52
1	1168847	452	46
1	1171430	453	48
1	1173942	454	53
1	1176572	455	50
1	1178865	456	56
1	1181444	457	55
1	1184175	458	45
1	1186768	459	43
1	1189510	460	58
1	1192133	461	42
1	1194984	462	56
1	1197466	463	49
1	1199988	464	46
1	1202488	465	57
1	1205018	466	58
1	1207485	467	46
1	1209769	468	49
1	1212445	469	52
1	1215001	470	50
1	1217412	471	50
1	1219879	472	57
1	1222445	473	33
1	1225211	474	33
1	1227723	475	10
1	1230158	476	8
1	1232732	477	23
1	1235357	478	53
1	1237850	479	51
1	1240362	480	39
1	1243125	481	55
1	1245585	482	44
1	1248189	483	48
1	1250679	484	44
1	1253270	485	37
1	1255943	486	57
1	1258460	487	53
1	1260888	488	57
1	1263568	489	57
1	1266190	490	23
1	1268692	491	24
1	1271421	492	11
1	1274023	493	16
1	1276579	494	35
1	1279162	495	32
1	1281592	496	6
1	1283965	497	2
1	1286549	498	17
1	1289297	499	28
1	1291984	500	42
1	1294518	501	14
1	1297124	502	32
1	1299698	503	45
1	1302212	504	53
1	1304796	505	44
1	1307182	506	39
1	1309705	507	24
1	1312370	508	27
1	1315039	509	27
1	1317443	510	10
1	1319652	511	6
1	1322158	512	15
1	1324741	513	27
1	1327323	514	13
1	1330036	515	29
1	1332759	516	49
1	1335265	517	24
1	1337849	518	2
1	1340239	519	5
1	1342905	520	7
1	1345706	521	10
1	1348421	522	1
1	1350861	523	32
1	1353609	524	32
1	1356464	525	41
1	1359173	526	33
1	1361663	527	41
1	1364378	528	56
1	1366991	529	57
1	1369544	530	57
1	1371982	531	49
1	1374515	532	13
1	1377094	533	18
1	1379713	534	5
1	1382492	535	18
1	1385255	536	32
1	1387985	537	23
1	1390617	538	42
1	1393319	539	54
1	1395740	540	46
1	1398242	541	50
1	1400452	542	49
1	1402875	543	51
1	1405465	544	57
1	1408005	545	49
1	1410380	546	59
1	1412901	547	50
1	1415393	548	51
1	1417938	549	56
1	1420630	550	41
1	1423190	551	39
1	1425746	552	54
1	1428533	553	36
1	1430988	554	31
1	1433586	555	11
1	1436182	556	29
1	1438749	557	40
1	1441458	558	54
1	1444022	559	37
1	1446483	560	34
1	1449040	561	57
1	1451543	562	46
1	1454161	563	46
1	1457115	564	22
1	1459747	565	16
1	1462302	566	15
1	1464827	567	31
1	1467508	568	30
1	1470081	569	52
1	1472724	570	54
1	1475396	571	35
1	1478045	572	50
1	1480894	573	41
1	1483566	574	43
1	1486168	575	21
1	1488536	576	31
1	1491083	577	35
1	1493547	578	1
1	1496194	579	18
1	1499128	580	41
1	1501648	581	31
1	1504283	582	29
1	1506907	583	30
1	1509633	584	38
1	1512201	585	45
1	1514912	586	19
1	1517429	587	26
1	1520141	588	19
1	1522628	589	15
1	1525108	590	22
1	1527662	591	26
1	1530418	592	28
1	1533306	593	41
1	1535703	594	23
1	1538250	595	21
1	1540921	596	26
1	1543485	597	48
1	1546028	598	46
1	1548780	599	32
1	1551284	600	52
1	1553762	601	53
1	1556363	602	47
1	1559040	603	56
1	1561469	604	50
1	1564075	605	56
1	1566725	606	34
1	1569181	607	32
1	1571818	608	47
1	1574244	609	48
1	1576693	610	59
1	1579219	611	52
1	1581559	612	54
1	1584313	613	25
1	1586853	614	5
1	1589339	615	11
1	1591815	616	4
1	1594350	617	5
1	1596978	618	22
1	1599678	619	52
1	1601975	620	52
1	1604497	621	54
1	1607047	622	57
1	1609496	623	57
1	1612111	624	51
1	1614595	625	48
1	1617161	626	55
1	1619590	627	41
1	1622069	628	39
1	1624693	629	51
1	1627154	630	51
1	1629495	631	50
1	1631910	632	45
1	1634281	633	53
1	1636962	634	32
1	1639491	635	30
1	1641863	636	37
1	1644655	637	9
1	1647224	638	24
1	1649569	639	4
1	1652284	640	19
1	1654796	641	23
1	1657454	642	19
1	1660045	643	18
1	1662555	644	45
1	1665270	645	46
1	1667915	646	51
1	1670466	647	51
1	1673154	648	59
1	1675569	649	58
1	1678102	650	43
1	1680753	651	42
1	1683391	652	33
1	1685968	653	55
1	1688245	654	57
1	1690605	655	33
1	1692972	656	37
1	1695580	657	47
1	1698159	658	50
1	1700472	659	52
1	1703034	660	31
1	1705627	661	43
1	1708169	662	59
1	1710644	663	55
1	1713429	664	50
1	1715940	665	35
1	1718573	666	57
1	1721189	667	59
1	1723620	668	53
1	1726228	669	42
1	1728940	670	51
1	1731507	671	46
1	1734153	672	52
1	1736883	673	57
1	1739432	674	47
1	1742016	675	31
1	1744637	676	26
1	1747061	677	5
1	1749813	678	24
1	1752246	679	43
1	1755142	680	45
1	1757799	681	27
1	1760582	682	57
1	1763002	683	50
1	1765533	684	33
1	1768315	685	27
1	1770808	686	32
1	1773290	687	30
1	1775779	688	11
1	1778284	689	7
1	1780680	690	32
1	1783406	691	19
1	1785654	692	37
1	1788207	693	56
1	1790909	694	48
1	1793602	695	44
1	1796266	696	37
1	1798982	697	15
1	1801564	698	23
1	1804089	699	24
1	1806783	700	12
1	1809133	701	26
1	1811588	702	55
1	1814280	703	36
1	1816675	704	57
1	1819156	705	52
1	1821914	706	49
1	1824528	707	50
1	1827132	708	57
1	1829528	709	56
1	1832089	710	44
1	1834414	711	53
1	1836657	712	53
1	1839229	713	47
1	1841983	714	52
1	1844727	715	43
1	1847326	716	52
1	1849936	717	55
1	1852591	718	20
1	1855366	719	13
1	1857793	720	1
1	1860331	721	9
1	1863103	722	9
1	1865788	723	34
1	1868340	724	36
1	1870624	725	49
1	1873066	726	50
1	1875500	727	51
1	1877932	728	52
1	1880691	729	50
1	1883203	730	48
1	1885531	731	51
1	1888167	732	42
1	1890932	733	56
1	1893440	734	45
1	1895916	735	28
1	1898604	736	15
1	1901460	737	25
1	1904026	738	24
1	1906298	739	49
1	1908787	740	54
1	1911498	741	45
1	1913934	742	54
1	1916114	743	43
1	1918698	744	41
1	1921323	745	41
1	1923942	746	19
1	1926475	747	1
1	1929040	748	38
1	1931392	749	58
1	1933983	750	51
1	1936495	751	53
1	1939231	752	55
1	1941731	753	52
1	1944078	754	58
1	1946685	755	58
1	1949266	756	47
1	1951906	757	28
1	1954500	758	29
1	1956991	759	47
1	1959566	760	48
1	1962263	761	46
1	1965100	762	33
1	1967798	763	35
1	1970412	764	18
1	1972868	765	4
1	1975263	766	2
1	1977894	767	18
[...]
2	9688069	3760	41
2	9690754	3761	46
2	9693278	3762	49
2	9695855	3763	53
2	9698479	3764	43
2	9701480	3765	26
2	9704212	3766	34
2	9706683	3767	54
2	9709431	3768	48
2	9711685	3769	54
2	9713891	3770	41
2	9716395	3771	29
2	9719128	3772	34
2	9721845	3773	43
2	9724512	3774	35
2	9727270	3775	48
2	9729988	3776	38
2	9732534	3777	22
2	9735165	3778	12
2	9737640	3779	28
2	9740055	3780	32
2	9742600	3781	36
2	9745033	3782	44
2	9747827	3783	20
2	9750513	3784	21
2	9753310	3785	18
2	9756151	3786	8
2	9758782	3787	1
2	9761163	3788	4
2	9763745	3789	9
2	9766551	3790	35
2	9768991	3791	49
2	9771656	3792	33
2	9774178	3793	18
2	9776778	3794	14
2	9779355	3795	9
2	9782012	3796	5
2	9784336	3797	4
2	9786930	3798	19
2	9789405	3799	15
2	9792022	3800	17
2	9794573	3801	34
2	9797266	3802	31
2	9799674	3803	30
2	9802309	3804	47
2	9804883	3805	49
2	9807077	3806	59
2	9809426	3807	55
2	9811709	3808	49
2	9814148	3809	12
2	9816511	3810	5
2	9819038	3811	0
2	9821591	3812	7
2	9824286	3813	0
2	9826815	3814	10
2	9829465	3815	18
2	9832073	3816	24
2	9834752	3817	20
2	9837373	3818	20
2	9840143	3819	19
2	9842561	3820	14
2	9845138	3821	24
2	9847921	3822	33
2	9850409	3823	16
2	9853077	3824	7
2	9855563	3825	2
2	9858053	3826	2
2	9860559	3827	13
2	9863208	3828	34
2	9865736	3829	19
2	9868429	3830	6
2	9870953	3831	5
2	9873357	3832	19
2	9875961	3833	50
2	9878599	3834	46
2	9881270	3835	27
2	9883890	3836	23
2	9886594	3837	22
2	9889141	3838	13
2	9891929	3839	34
2	9894250	3840	48
2	9897013	3841	50
2	9899485	3842	52
2	9901859	3843	17
2	9904423	3844	22
2	9906939	3845	32
2	9909441	3846	44
2	9911933	3847	51
2	9914465	3848	58
2	9917038	3849	37
2	9919347	3850	47
2	9921855	3851	38
2	9924405	3852	55
2	9926794	3853	45
2	9929470	3854	27
2	9932256	3855	28
2	9934988	3856	50
2	9937405	3857	36
2	9939861	3858	27
2	9942379	3859	50
2	9945036	3860	36
2	9948053	3861	42
2	9950430	3862	52
2	9952926	3863	49
2	9955579	3864	41
2	9958059	3865	40
2	9960629	3866	47
2	9963295	3867	47
2	9965934	3868	52
2	9968681	3869	31
2	9971181	3870	41
2	9973670	3871	52
2	9976087	3872	53
2	9978506	3873	49
2	9980892	3874	34
2	9983599	3875	45
2	9986210	3876	45
2	9988848	3877	47
2	9991478	3878	35
2	9994059	3879	28
2	9996659	3880	46
2	9999040	3881	58
2	10001584	3882	56
2	10004229	3883	53
2	10006386	3884	56
2	10008918	3885	51
2	10011571	3886	39
2	10013809	3887	55
2	10016345	3888	56
2	10018743	3889	55
2	10021131	3890	44
2	10023761	3891	52
2	10026130	3892	44
2	10028760	3893	46
2	10031569	3894	34
2	10034152	3895	21
2	10036781	3896	16
2	10039344	3897	14
2	10041949	3898	10
2	10044577	3899	19
2	10046980	3900	0
2	10049452	3901	3
2	10051992	3902	28
2	10054482	3903	13
2	10057226	3904	5
2	10059716	3905	12
2	10062427	3906	9
2	10064983	3907	29
2	10067598	3908	38
2	10070146	3909	7
2	10072766	3910	16
2	10075031	3911	11
2	10077424	3912	5
2	10079759	3913	12
2	10082455	3914	1
2	10084897	3915	7
2	10087406	3916	2
2	10089941	3917	13
2	10092445	3918	13
2	10095141	3919	15
2	10097888	3920	27
2	10100601	3921	38
2	10103174	3922	36
2	10105743	3923	41
2	10108369	3924	16
2	10110729	3925	0
2	10113352	3926	3
2	10116049	3927	9
2	10118623	3928	15
2	10121330	3929	23
2	10123943	3930	2
2	10126320	3931	6
2	10128855	3932	8
2	10131391	3933	20
2	10133989	3934	28
2	10136529	3935	11
2	10139286	3936	8
2	10141824	3937	17
2	10144455	3938	23
2	10147082	3939	22
2	10149751	3940	12
2	10152388	3941	0
2	10154973	3942	7
2	10157492	3943	4
2	10159973	3944	0
2	10162392	3945	4
2	10165012	3946	12
2	10167847	3947	11
2	10170531	3948	33
2	10173216	3949	28
2	10175716	3950	15
2	10178438	3951	11
2	10181312	3952	17
2	10183885	3953	22
2	10186646	3954	11
2	10189078	3955	13
2	10191460	3956	8
2	10194060	3957	6
2	10196605	3958	24
2	10198949	3959	30
2	10201602	3960	18
2	10204024	3961	20
2	10206685	3962	23
2	10209419	3963	5
2	10211939	3964	3
2	10214185	3965	2
2	10216533	3966	21
2	10219252	3967	19
2	10221798	3968	19
2	10224267	3969	28
2	10226997	3970	24
2	10229593	3971	13
2	10232319	3972	3
2	10234948	3973	2
2	10237252	3974	1
2	10239892	3975	13
2	10242418	3976	24
2	10244959	3977	10
2	10247625	3978	31
2	10250152	3979	28
2	10252743	3980	50
2	10254992	3981	56
2	10257642	3982	37
2	10260030	3983	55
2	10262519	3984	47
2	10265315	3985	40
2	10268083	3986	32
2	10270735	3987	35
2	10273457	3988	45
2	10276005	3989	54
2	10278295	3990	37
2	10281025	3991	18
2	10283519	3992	31
2	10286238	3993	23
2	10288776	3994	42
2	10291438	3995	45
2	10294226	3996	32
2	10296906	3997	39
2	10299626	3998	24
2	10302446	3999	12
2	10305076	4000	16
3	13290	5	1083
3	25643	10	973
3	38424	15	1037
3	51472	20	1106
3	63634	25	954
3	76657	30	1077
3	89391	35	1044
3	102413	40	1076
3	115280	45	1021
3	128408	50	1098
3	141713	55	1051
3	154441	60	1024
3	167390	65	1091
3	180435	70	1089
3	193385	75	1070
3	206422	80	1047
3	218986	85	1006
3	232049	90	1021
3	244942	95	1031
3	257440	100	1070
3	270858	105	1106
3	283625	110	1013
3	296277	115	976
3	308710	120	997
3	321027	125	955
3	334031	130	1066
3	346337	135	932
3	358932	140	1037
3	371915	145	1069
3	384144	150	985
3	397285	155	1067
3	410425	160	1042
3	423597	165	1090
3	436268	170	1053
3	449169	175	1071
3	462818	180	1101
3	475121	185	1015
3	488381	190	1080
3	501222	195	1013
3	514371	200	1049
3	527459	205	1080
3	540352	210	1025
3	553239	215	1055
3	566240	220	1089
3	579173	225	1017
3	592522	230	1137
3	605623	235	1063
3	618451	240	1020
3	631810	245	1055
3	645108	250	1166
3	658564	255	1108
3	671400	260	1016
3	684616	265	1042
3	697802	270	1102
3	711234	275	1108
3	724047	280	1033
3	737076	285	1043
3	750118	290	1060
3	763514	295	1088
3	776548	300	1034
3	789880	305	1134
3	803181	310	1123
3	815650	315	1017
3	828043	320	967
3	841274	325	1059
3	854322	330	1014
3	866713	335	945
3	879504	340	955
3	891995	345	957
3	905040	350	1099
3	918265	355	1067
3	931786	360	1127
3	944956	365	1072
3	957032	370	958
3	969474	375	938
3	982687	380	1069
3	995773	385	1060
3	1008924	390	1087
3	1021378	395	1032
3	1033978	400	1032
3	1047163	405	1087
3	1060358	410	1045
3	1073069	415	1057
3	1086092	420	1023
3	1099153	425	1041
3	1111550	430	991
3	1125007	435	1063
3	1137986	440	1075
3	1150896	445	1004
3	1163841	450	1055
3	1176570	455	1003
3	1189508	460	1040
3	1202486	465	1082
3	1214999	470	1001
3	1227721	475	944
3	1240360	480	987
3	1253268	485	1044
3	1266188	490	1060
3	1279160	495	1004
3	1291982	500	1040
3	1304794	505	1022
3	1317441	510	985
3	1330034	515	991
3	1342903	520	1043
3	1356462	525	1159
3	1369542	530	1022
3	1382490	535	1042
3	1395738	540	1090
3	1408003	545	969
3	1420628	550	1081
3	1433584	555	1044
3	1446481	560	1031
3	1459745	565	1070
3	1472722	570	1089
3	1486166	575	1104
3	1499126	580	1078
3	1512199	585	1065
3	1525106	590	989
3	1538248	595	1068
3	1551282	600	1080
3	1564073	605	1101
3	1576691	610	1010
3	1589337	615	1008
3	1601973	620	1032
3	1614593	625	1044
3	1627152	630	1015
3	1639489	635	955
3	1652282	640	1047
3	1665268	645	1068
3	1678100	650	1022
3	1690603	655	997
3	1703032	660	951
3	1715938	665	1072
3	1728938	670	1080
3	1742014	675	1086
3	1755140	680	1066
3	1768313	685	1083
3	1780678	690	951
3	1793600	695	1084
3	1806781	700	1111
3	1819154	705	931
3	1832087	710	1053
3	1844725	715	944
3	1857791	720	1076
3	1870622	725	1009
3	1883201	730	1041
3	1895914	735	1053
3	1908785	740	1097
3	1921321	745	1050
3	1933981	750	992
3	1946683	755	1016
3	1959564	760	1081
3	1972866	765	1086
3	1985683	770	1015
3	1998118	775	969
3	2011539	780	1131
3	2024737	785	1154
3	2037699	790	1082
3	2050973	795	1054
3	2063735	800	978
3	2076348	805	985
3	2089525	810	1067
3	2102405	815	1052
3	2114894	820	979
3	2127665	825	1005
3	2140746	830	1081
3	2153639	835	1027
3	2166862	840	1127
3	2180321	845	1133
3	2192332	850	945
3	2205419	855	1103
3	2218793	860	1076
3	2231377	865	1002
3	2243921	870	1052
3	2256771	875	1054
3	2269834	880	1109
3	2283111	885	1091
3	2295726	890	1029
3	2308266	895	1006
3	2320787	900	995
3	2333643	905	988
3	2346482	910	997
3	2359701	915	1055
3	2372503	920	1104
3	2385268	925	1025
3	2397657	930	959
3	2410876	935	1071
3	2424088	940	1070
3	2437244	945	1074
3	2450308	950	1052
3	2463528	955	1066
3	2477022	960	1106
3	2489862	965	988
3	2503128	970	1094
3	2516613	975	1117
3	2530161	980	1156
3	2542962	985	1011
3	2556144	990	1072
3	2569201	995	1037
3	2582158	1000	1085
3	2595511	1005	1131
3	2608919	1010	1052
3	2621559	1015	990
3	2634412	1020	1027
3	2647652	1025	1056
3	2660695	1030	1047
3	2673468	1035	1027
3	2686524	1040	1016
3	2698902	1045	996
3	2712359	1050	1083
3	2725414	1055	1031
3	2738178	1060	1048
3	2751071	1065	1073
3	2763264	1070	975
3	2776472	1075	1108
3	2789203	1080	1029
3	2802015	1085	1028
3	2814965	1090	1066
3	2827768	1095	1015
3	2840082	1100	978
3	2853359	1105	1075
3	2866021	1110	1032
3	2878930	1115	993
3	2891651	1120	1013
3	2904160	1125	999
3	2916838	1130	1054
3	2930311	1135	1089
3	2943397	1140	1054
3	2955717	1145	982
3	2968617	1150	990
3	2981074	1155	1031
3	2994574	1160	1122
3	3007416	1165	1008
3	3020206	1170	994
3	3033199	1175	1035
3	3045492	1180	1005
3	3058481	1185	1049
3	3071485	1190	1048
3	3084539	1195	984
3	3097365	1200	1078
3	3110569	1205	1042
3	3123603	1210	1018
3	3135818	1215	1013
3	3148991	1220	1087
3	3162424	1225	1089
3	3175592	1230	1024
3	3188914	1235	1062
3	3201948	1240	1084
3	3214577	1245	1027
3	3227490	1250	1025
3	3240841	1255	1119
3	3253835	1260	1074
3	3266635	1265	1074
3	3280109	1270	1106
3	3293374	1275	1107
3	3306197	1280	1021
3	3319352	1285	1073
3	3331892	1290	988
3	3345053	1295	1041
3	3357592	1300	1003
3	3370892	1305	1070
3	3384337	1310	1163
3	3397719	1315	1084
3	3410820	1320	1049
3	3423654	1325	1098
3	3436173	1330	1005
3	3449020	1335	1029
3	3462006	1340	1040
3	3475342	1345	1074
3	3488327	1350	1039
3	3500452	1355	977
3	3513362	1360	1058
3	3526253	1365	1025
3	3538902	1370	1001
3	3552391	1375	1123
3	3564989	1380	1044
3	3577765	1385	1030
3	3590935	1390	1066
3	3604437	1395	1164
3	3617151	1400	1004
3	3629660	1405	1055
3	3642567	1410	985
3	3655753	1415	1038
3	3669112	1420	1083
3	3681846	1425	1034
3	3695342	1430	1152
3	3708442	1435	1062
3	3721855	1440	1083
3	3734715	1445	1034
3	3748155	1450	1092
3	3760361	1455	980
3	3773363	1460	1062
3	3786640	1465	1129
3	3799705	1470	1049
3	3812661	1475	1052
3	3825667	1480	1050
3	3839081	1485	1112
3	3851035	1490	958
3	3864732	1495	1137
3	3877602	1500	1018
3	3889701	1505	963
3	3902693	1510	1074
3	3916017	1515	1064
3	3928915	1520	1066
3	3940914	1525	1015
3	3953458	1530	1022
3	3966080	1535	1030
3	3978770	1540	1048
3	3990587	1545	953
3	4003917	1550	1098
3	4016594	1555	1003
3	4029555	1560	1055
3	4041858	1565	945
3	4054588	1570	1052
3	4067731	1575	1097
3	4081092	1580	1103
3	4093650	1585	962
3	4105905	1590	959
3	4118461	1595	1000
3	4131125	1600	1038
3	4143758	1605	1011
3	4156646	1610	1024
3	4169278	1615	1032
3	4181782	1620	1018
3	4194940	1625	1086
3	4208230	1630	1094
3	4220805	1635	981
3	4233911	1640	1028
3	4247156	1645	1119
3	4260039	1650	985
3	4272831	1655	1056
3	4285927	1660	1038
3	4298652	1665	1063
3	4310738	1670	958
3	4323537	1675	1037
3	4336502	1680	1023
3	4349896	1685	1104
3	4363315	1690	1137
3	4376243	1695	1020
3	4388640	1700	1009
3	4401568	1705	1068
3	4414540	1710	1062
3	4427084	1715	998
3	4440190	1720	1066
3	4453028	1725	1038
3	4466096	1730	1036
3	4478960	1735	1020
3	4492110	1740	1062
3	4505112	1745	1018
3	4517643	1750	983
3	4530429	1755	1028
3	4543470	1760	1021
3	4556629	1765	1095
3	4570013	1770	1124
3	4582523	1775	1008
3	4595384	1780	1043
3	4608095	1785	1023
3	4620644	1790	1003
3	4633326	1795	1012
3	4646144	1800	1042
3	4658667	1805	1023
3	4671539	1810	1020
3	4684190	1815	1011
3	4696990	1820	1026
3	4709472	1825	988
3	4722022	1830	1050
3	4734882	1835	1048
3	4748222	1840	1076
3	4760914	1845	1024
3	4773587	1850	975
3	4786506	1855	1047
3	4799247	1860	1051
3	4812580	1865	1077
3	4825494	1870	1052
3	4838344	1875	1066
3	4851080	1880	1062
3	4864095	1885	1107
3	4877025	1890	1044
3	4889798	1895	1005
3	4902142	1900	976
3	4915447	1905	1103
3	4927901	1910	966
3	4939930	1915	949
3	4952712	1920	1052
3	4965813	1925	1123
3	4978942	1930	1055
3	4992144	1935	1106
3	5004897	1940	1025
3	5017607	1945	1008
3	5030233	1950	1062
3	5043309	1955	1020
3	5056100	1960	1055
3	5068605	1965	1027
3	5082127	1970	1080
3	5095416	1975	1057
3	5108172	1980	1040
3	5121401	1985	1043
3	5134494	1990	1041
3	5147002	1995	968
3	5160516	2000	1092
3	5174200	2005	1130
3	5187365	2010	1019
3	5199995	2015	1016
3	5213068	2020	997
3	5225828	2025	1052
3	5238363	2030	1039
3	5251377	2035	1060
3	5264328	2040	1041
3	5277399	2045	1071
3	5290453	2050	1060
3	5303322	2055	1077
3	5316140	2060	1036
3	5328962	2065	1050
3	5342467	2070	1095
3	5355192	2075	1041
3	5368774	2080	1082
3	5381579	2085	1029
3	5394136	2090	1031
3	5406834	2095	1018
3	5419617	2100	1035
3	5432610	2105	1121
3	5444795	2110	945
3	5457202	2115	959
3	5469946	2120	1032
3	5482418	2125	966
3	5494759	2130	1007
3	5507665	2135	1066
3	5520880	2140	1131
3	5533727	2145	1077
3	5546728	2150	1095
3	5559820	2155	1036
3	5572786	2160	1032
3	5585738	2165	1062
3	5598666	2170	1080
3	5611666	2175	1034
3	5624544	2180	1058
3	5638048	2185	1148
3	5651281	2190	1031
3	5663870	2195	1007
3	5677452	2200	1116
3	5690422	2205	1040
3	5703279	2210	1065
3	5715929	2215	1026
3	5728683	2220	1002
3	5741780	2225	1053
3	5754364	2230	990
3	5767671	2235	1083
3	5780359	2240	1052
3	5793527	2245	1052
3	5806694	2250	1063
3	5819153	2255	1009
3	5832430	2260	1089
3	5845169	2265	1055
3	5857863	2270	1044
3	5870674	2275	1043
3	5883014	2280	984
3	5896051	2285	1065
3	5908987	2290	1018
3	5921304	2295	975
3	5934146	2300	1002
3	5947111	2305	1055
3	5959346	2310	983
3	5971891	2315	1011
3	5985082	2320	1137
3	5998423	2325	1115
3	6012098	2330	1113
3	6024747	2335	1029
3	6037682	2340	1075
3	6050941	2345	1095
3	6063780	2350	1009
3	6076164	2355	1002
3	6089111	2360	1027
3	6102146	2365	993
3	6114793	2370	1007
3	6127148	2375	991
3	6140316	2380	1080
3	6153046	2385	1064
3	6166795	2390	1085
3	6180329	2395	1112
3	6192949	2400	1008
3	6205848	2405	1009
3	6219000	2410	1082
3	6232080	2415	1060
3	6244910	2420	990
3	6258093	2425	1071
3	6270922	2430	1017
3	6283702	2435	1012
3	6296879	2440	1059
3	6309466	2445	1081
3	6322664	2450	1094
3	6335217	2455	1015
3	6347861	2460	1020
3	6361123	2465	1122
3	6374034	2470	1073
3	6387049	2475	1023
3	6399519	2480	964
3	6412336	2485	1015
3	6425798	2490	1142
3	6438218	2495	1040
3	6450733	2500	1023
3	6463759	2505	1050
3	6476724	2510	1073
3	6489706	2515	1040
3	6502940	2520	1086
3	6515264	2525	988
3	6528219	2530	1049
3	6541471	2535	1032
3	6554513	2540	1088
3	6567824	2545	1107
3	6581095	2550	1057
3	6594414	2555	1143
3	6607236	2560	992
3	6619757	2565	1021
3	6632579	2570	1038
3	6645932	2575	1139
3	6658980	2580	1044
3	6671473	2585	987
3	6684104	2590	963
3	6696999	2595	1005
3	6709554	2600	975
3	6722288	2605	1058
3	6735427	2610	1109
3	6748439	2615	1052
3	6761448	2620	1067
3	6774418	2625	1038
3	6787239	2630	1023
3	6799856	2635	1033
3	6813340	2640	1110
3	6826398	2645	1092
3	6839664	2650	1050
3	6852317	2655	1019
3	6865339	2660	1058
3	6879161	2665	1144
3	6892569	2670	1154
3	6905164	2675	1031
3	6917940	2680	1044
3	6931183	2685	1087
3	6944086	2690	1043
3	6956872	2695	1034
3	6969460	2700	1026
3	6982369	2705	1045
3	6995452	2710	997
3	7008799	2715	1093
3	7021922	2720	1063
3	7034270	2725	936
3	7046966	2730	1006
3	7059908	2735	994
3	7072716	2740	1020
3	7085874	2745	1086
3	7098798	2750	1008
3	7111644	2755	1042
3	7124380	2760	1056
3	7136862	2765	976
3	7149764	2770	1028
3	7162022	2775	1022
3	7174956	2780	1038
3	7187847	2785	1071
3	7200557	2790	1078
3	7213418	2795	1007
3	7226219	2800	1067
3	7238838	2805	971
3	7251872	2810	1074
3	7264732	2815	1078
3	7277533	2820	995
3	7290311	2825	1050
3	7302836	2830	973
3	7315509	2835	1043
3	7328714	2840	1111
3	7340095	2845	899
3	7353011	2850	1024
3	7365947	2855	1108
3	7379431	2860	1160
3	7392694	2865	1071
3	7405661	2870	1035
3	7418199	2875	978
3	7430399	2880	936
3	7443064	2885	1043
3	7455738	2890	984
3	7468763	2895	1037
3	7481756	2900	1057
3	7494593	2905	1005
3	7507249	2910	1002
3	7520244	2915	1095
3	7533156	2920	1048
3	7545910	2925	1044
3	7558460	2930	1070
3	7570976	2935	994
3	7584364	2940	1088
3	7596780	2945	1022
3	7610051	2950	1075
3	7622892	2955	1047
3	7635972	2960	1040
3	7649220	2965	1110
3	7662043	2970	995
3	7675125	2975	1108
3	7688147	2980	1044
3	7700931	2985	992
3	7713840	2990	987
3	7726540	2995	1042
3	7738788	3000	992
3	7750816	3005	968
3	7763351	3010	1003
3	7776109	3015	998
3	7788508	3020	961
3	7801162	3025	1052
3	7813952	3030	1054
3	7826967	3035	1063
3	7839289	3040	962
3	7852107	3045	1050
3	7864826	3050	1031
3	7878341	3055	1121
3	7891517	3060	1086
3	7905090	3065	1117
3	7917656	3070	982
3	7930929	3075	1093
3	7943710	3080	1019
3	7957058	3085	1084
3	7970641	3090	1149
3	7983386	3095	1051
3	7995883	3100	963
3	8008739	3105	1100
3	8021746	3110	1095
3	8034969	3115	1115
3	8047741	3120	1044
3	8060035	3125	990
3	8072631	3130	1022
3	8085715	3135	1062
3	8098441	3140	1074
3	8110716	3145	955
3	8123813	3150	1061
3	8136615	3155	1054
3	8149820	3160	1091
3	8163091	3165	1087
3	8175834	3170	1029
3	8188703	3175	1015
3	8201546	3180	1011
3	8214790	3185	1086
3	8228029	3190	1065
3	8240936	3195	1095
3	8253547	3200	981
3	8266074	3205	993
3	8279023	3210	1001
3	8291891	3215	1050
3	8305224	3220	1119
3	8318260	3225	1070
3	8330911	3230	1037
3	8343774	3235	1037
3	8356592	3240	1078
3	8369718	3245	1100
3	8382387	3250	991
3	8395354	3255	1049
3	8407950	3260	1022
3	8420892	3265	1018
3	8433675	3270	1069
3	8446488	3275	1025
3	8459259	3280	997
3	8472302	3285	1065
3	8484933	3290	1023
3	8497269	3295	1046
3	8510042	3300	1071
3	8523091	3305	1019
3	8535749	3310	1038
3	8548620	3315	1025
3	8561243	3320	1011
3	8573740	3325	949
3	8586707	3330	1057
3	8599440	3335	1067
3	8612589	3340	1063
3	8624886	3345	999
3	8637791	3350	1025
3	8651069	3355	1104
3	8663626	3360	1005
3	8676063	3365	1021
3	8688225	3370	980
3	8700573	3375	992
3	8713456	3380	1011
3	8726600	3385	1152
3	8739611	3390	1081
3	8752432	3395	1059
3	8765555	3400	1091
3	8777970	3405	1013
3	8791710	3410	1174
3	8804328	3415	1018
3	8817126	3420	1042
3	8829849	3425	1069
3	8842831	3430	1042
3	8855761	3435	1042
3	8869133	3440	1112
3	8881749	3445	1064
3	8894815	3450	1034
3	8907271	3455	1010
3	8919997	3460	1000
3	8932231	3465	966
3	8945172	3470	1103
3	8957860	3475	1024
3	8970773	3480	1021
3	8983665	3485	1066
3	8996469	3490	1012
3	9009558	3495	1071
3	9022861	3500	1113
3	9035933	3505	1042
3	9049005	3510	1050
3	9061810	3515	1011
3	9074042	3520	932
3	9086982	3525	1044
3	9099496	3530	1000
3	9112453	3535	1093
3	9124823	3540	982
3	9137557	3545	1050
3	9150380	3550	1029
3	9162771	3555	1037
3	9175350	3560	979
3	9188670	3565	1084
3	9202125	3570	1125
3	9215204	3575	1007
3	9228046	3580	946
3	9240421	3585	961
3	9252944	3590	1005
3	9265423	3595	1013
3	9278082	3600	1031
3	9291056	3605	1080
3	9303582	3610	1006
3	9316155	3615	1041
3	9328932	3620	1051
3	9341915	3625	1051
3	9354841	3630	1122
3	9367972	3635	1003
3	9380811	3640	1025
3	9393653	3645	1060
3	9406709	3650	1096
3	9419888	3655	1033
3	9433433	3660	1093
3	9445877	3665	992
3	9458454	3670	1045
3	9471434	3675	1066
3	9483797	3680	953
3	9496186	3685	977
3	9509198	3690	1070
3	9521776	3695	988
3	9534770	3700	1120
3	9546979	3705	961
3	9559432	3710	979
3	9572668	3715	1060
3	9585196	3720	982
3	9598200	3725	1050
3	9611126	3730	1104
3	9624279	3735	1093
3	9637401	3740	1146
3	9650211	3745	1060
3	9663418	3750	1093
3	9675656	3755	916
3	9688066	3760	1004
3	9701477	3765	1143
3	9713888	3770	1021
3	9727267	3775	1113
3	9740052	3780	999
3	9753307	3785	1087
3	9766548	3790	1069
3	9779352	3795	996
3	9792019	3800	1001
3	9804880	3805	1027
3	9816508	3810	932
3	9829462	3815	1050
3	9842558	3820	1084
3	9855560	3825	1038
3	9868426	3830	1026
3	9881267	3835	999
3	9894247	3840	1078
3	9906936	3845	977
3	9919344	3850	1012
3	9932253	3855	1059
3	9945033	3860	1016
3	9958056	3865	1031
3	9971178	3870	1116
3	9983596	3875	952
3	9996656	3880	1022
3	10008915	3885	955
3	10021128	3890	1001
3	10034149	3895	1069
3	10046977	3900	994
3	10059713	3905	1096
3	10072763	3910	1076
3	10084894	3915	927
3	10097885	3920	1067
3	10110726	3925	1017
3	10123940	3930	1134
3	10136526	3935	988
3	10149748	3940	1096
3	10162389	3945	1019
3	10175713	3950	1086
3	10189075	3955	1084
3	10201599	3960	1010
3	10214182	3965	1013
3	10226994	3970	1038
3	10239889	3975	1033
3	10252740	3980	1053
3	10265312	3985	1022
3	10278292	3990	1058
3	10291435	3995	1095
3	10305073	4000	1120

