version 2
run warm-up-2-20211217-19:27:05-12596
attr configname warm-up
attr datetime 20211217-19:27:05
attr experiment warm-up
attr inifile omnetpp.ini
attr iterationvars ""
attr iterationvarsf ""
attr measurement ""
attr network Network
attr processid 12596
attr repetition 2
attr replication #2
attr resultdir results
attr runnumber 2
attr seedset 2
param **.server.p1 0.3
param **.server.p2 0.47
param **.clients.num_clients 60
param **.processor.service_rate 1000
param **.disk.service_rate 330
param **.webServer.serv_rate_w 165
param **.clients.timeWindow 5s

vector 0 Network.server.processor processor_backlog:vector ETV
attr source processor_backlog_s
vector 1 Network.server.disk disk_backlog:vector ETV
attr source disk_backlog_s
vector 2 Network.webServer wserver_backlog:vector ETV
attr source wserver_backlog_s
vector 3 Network.clients pkt_counter:vector ETV
attr source pkt_counter_s
0	2907	1	1
0	5626	2	0
0	7985	3	0
0	10608	4	6
0	13447	5	1
0	15947	6	0
0	18593	7	0
0	21333	8	1
0	23895	9	0
0	26543	10	0
0	29115	11	10
0	31534	12	4
0	34302	13	2
0	36718	14	0
0	39295	15	0
0	41648	16	1
0	44286	17	3
0	46873	18	0
0	49610	19	16
0	52040	20	0
0	54485	21	0
0	57195	22	3
0	59822	23	0
0	62526	24	3
0	65336	25	12
0	67877	26	0
0	70323	27	0
0	73033	28	0
0	75809	29	2
0	78523	30	6
0	81028	31	0
0	83771	32	0
0	86343	33	5
0	88912	34	1
0	91405	35	0
0	93890	36	1
0	96506	37	0
0	98947	38	4
0	101580	39	2
0	104393	40	0
0	106926	41	0
0	109571	42	1
0	112179	43	4
0	114801	44	0
0	117364	45	0
0	119882	46	1
0	122393	47	0
0	125004	48	1
0	127764	49	1
0	130225	50	2
0	132792	51	2
0	135646	52	0
0	138335	53	0
0	140845	54	0
0	143552	55	0
0	146190	56	1
0	148727	57	2
0	151642	58	0
0	154185	59	2
0	156792	60	0
0	159099	61	1
0	161505	62	3
0	163851	63	2
0	166453	64	5
0	168959	65	0
0	171468	66	1
0	174161	67	0
0	176783	68	3
0	179267	69	0
0	181851	70	0
0	184522	71	4
0	186972	72	0
0	189578	73	11
0	192291	74	0
0	194773	75	2
0	197521	76	0
0	200154	77	0
0	202696	78	0
0	205310	79	1
0	207781	80	0
0	210324	81	0
0	212631	82	3
0	215226	83	1
0	217757	84	0
0	220093	85	6
0	222893	86	0
0	225375	87	0
0	228097	88	3
0	230722	89	2
0	233398	90	7
0	235959	91	15
0	238661	92	0
0	241329	93	4
0	244069	94	2
0	246512	95	0
0	249409	96	0
0	251860	97	3
0	254615	98	0
0	257353	99	1
0	260045	100	0
0	262567	101	4
0	265398	102	0
0	267930	103	0
0	270564	104	0
0	273283	105	5
0	275964	106	0
0	278623	107	5
0	281283	108	0
0	283649	109	0
0	286146	110	0
0	288474	111	0
0	290882	112	1
0	293475	113	2
0	296020	114	0
0	298590	115	1
0	301119	116	0
0	303900	117	0
0	306419	118	4
0	309032	119	0
0	311815	120	0
0	314422	121	0
0	316979	122	0
0	319632	123	0
0	322437	124	6
0	325043	125	0
0	327570	126	2
0	330067	127	0
0	332670	128	1
0	335347	129	9
0	337832	130	3
0	340368	131	0
0	342975	132	0
0	345349	133	0
0	348020	134	0
0	350673	135	11
0	353269	136	0
0	356001	137	0
0	358815	138	4
0	361486	139	2
0	363947	140	0
0	366663	141	0
0	369261	142	0
0	372000	143	0
0	374680	144	2
0	377357	145	3
0	379910	146	2
0	382642	147	0
0	385216	148	0
0	388057	149	0
0	390626	150	0
0	393124	151	0
0	395747	152	6
0	398206	153	0
0	400961	154	0
0	403691	155	0
0	406326	156	10
0	408704	157	5
0	411162	158	0
0	413697	159	0
0	416440	160	1
0	418980	161	1
0	421722	162	0
0	424237	163	1
0	426963	164	3
0	429216	165	0
0	431888	166	0
0	434521	167	0
0	437139	168	0
0	439762	169	6
0	442297	170	0
0	444868	171	0
0	447466	172	4
0	450102	173	0
0	452858	174	0
0	455575	175	0
0	458115	176	2
0	460777	177	0
0	463341	178	0
0	465845	179	7
0	468426	180	0
0	471214	181	0
0	473824	182	0
0	476297	183	1
0	478822	184	0
0	481539	185	0
0	484034	186	3
0	486703	187	0
0	489230	188	0
0	491947	189	3
0	494580	190	0
0	497119	191	10
0	499816	192	1
0	502459	193	0
0	505011	194	1
0	507526	195	0
0	510286	196	2
0	512672	197	0
0	514976	198	0
0	517652	199	0
0	520244	200	1
0	522900	201	1
0	525445	202	0
0	528176	203	5
0	530872	204	0
0	533441	205	2
0	536100	206	2
0	538841	207	5
0	541627	208	0
0	544188	209	6
0	546774	210	1
0	549371	211	5
0	551890	212	5
0	554466	213	0
0	557164	214	0
0	559478	215	1
0	561953	216	0
0	564481	217	0
0	566959	218	0
0	569583	219	0
0	572129	220	1
0	574840	221	2
0	577562	222	5
0	579983	223	3
0	582534	224	1
0	585009	225	0
0	587440	226	0
0	590107	227	0
0	592745	228	8
0	595406	229	0
0	597954	230	0
0	600356	231	0
0	603110	232	0
0	605639	233	0
0	608159	234	4
0	610907	235	1
0	613442	236	0
0	616171	237	0
0	618821	238	0
0	621428	239	3
0	624025	240	0
0	626653	241	1
0	629242	242	0
0	631664	243	0
0	634123	244	1
0	636785	245	0
0	639600	246	3
0	642358	247	4
0	645041	248	7
0	647787	249	0
0	650237	250	0
0	652848	251	0
0	655526	252	0
0	658167	253	0
0	660732	254	0
0	663127	255	6
0	665785	256	0
0	668505	257	4
0	671101	258	3
0	673663	259	0
0	676150	260	0
0	678726	261	0
0	681124	262	2
0	683705	263	0
0	686137	264	4
0	688979	265	1
0	691699	266	1
0	694331	267	4
0	696976	268	1
0	699548	269	0
0	701965	270	0
0	704487	271	0
0	707243	272	0
0	709868	273	0
0	712620	274	3
0	715069	275	0
0	717695	276	0
0	720254	277	0
0	722887	278	3
0	725306	279	2
0	727652	280	1
0	730049	281	0
0	732410	282	10
0	734946	283	0
0	737609	284	0
0	740087	285	0
0	742569	286	0
0	745124	287	2
0	747844	288	2
0	750407	289	0
0	752867	290	0
0	755699	291	13
0	758144	292	0
0	760681	293	0
0	763238	294	0
0	765675	295	3
0	768328	296	7
0	770948	297	0
0	773793	298	0
0	776617	299	1
0	779190	300	0
0	781845	301	2
0	784576	302	1
0	787386	303	0
0	789554	304	1
0	792222	305	0
0	794799	306	0
0	797408	307	1
0	800012	308	1
0	802759	309	0
0	805289	310	0
0	807788	311	0
0	810380	312	1
0	812969	313	1
0	815397	314	0
0	818140	315	0
0	820755	316	1
0	823001	317	0
0	825682	318	9
0	828133	319	5
0	830885	320	0
0	833407	321	0
0	835762	322	2
0	838598	323	0
0	841337	324	0
0	844106	325	2
0	846793	326	2
0	849296	327	0
0	851802	328	0
0	854490	329	0
0	856991	330	0
0	859258	331	1
0	861857	332	2
0	864518	333	2
0	867256	334	10
0	870007	335	0
0	872590	336	0
0	875152	337	6
0	877816	338	0
0	880443	339	4
0	882792	340	5
0	885607	341	5
0	888228	342	0
0	890633	343	6
0	893484	344	9
0	896101	345	2
0	898751	346	0
0	901438	347	2
0	903977	348	0
0	906524	349	1
0	909204	350	0
0	911793	351	1
0	914483	352	0
0	916966	353	0
0	919529	354	6
0	922284	355	0
0	924882	356	0
0	927631	357	0
0	930265	358	0
0	932618	359	2
0	935001	360	0
0	937359	361	0
0	939895	362	0
0	942213	363	3
0	944748	364	0
0	947330	365	1
0	950121	366	1
0	952695	367	0
0	955358	368	0
0	957731	369	0
0	959999	370	0
0	962407	371	0
0	964765	372	2
0	967376	373	0
0	969884	374	0
0	971931	375	0
0	974165	376	0
0	976528	377	4
0	979220	378	4
0	981852	379	0
0	984612	380	1
0	987142	381	7
0	989916	382	3
0	992611	383	2
0	995511	384	4
0	998135	385	14
0	1000673	386	2
0	1003309	387	0
0	1005832	388	2
0	1008679	389	0
0	1010998	390	0
0	1013799	391	0
0	1016486	392	7
0	1019091	393	3
0	1021597	394	0
0	1024209	395	0
0	1026788	396	5
0	1029166	397	1
0	1031818	398	3
0	1034352	399	0
0	1036935	400	5
0	1039501	401	0
0	1042102	402	4
0	1044746	403	0
0	1047303	404	4
0	1049933	405	8
0	1052756	406	0
0	1055319	407	11
0	1058018	408	1
0	1060707	409	0
0	1063338	410	0
0	1065906	411	1
0	1068358	412	0
0	1071053	413	0
0	1073439	414	5
0	1075996	415	0
0	1078491	416	0
0	1080915	417	0
0	1083360	418	1
0	1085772	419	0
0	1088350	420	0
0	1091198	421	2
0	1093685	422	0
0	1096160	423	4
0	1098666	424	2
0	1101255	425	0
0	1104127	426	0
0	1106809	427	0
0	1109339	428	1
0	1111852	429	0
0	1114670	430	0
0	1117301	431	0
0	1119982	432	2
0	1122541	433	1
0	1125216	434	0
0	1128010	435	1
0	1130626	436	0
0	1133227	437	1
0	1135903	438	1
0	1138864	439	1
0	1141268	440	5
0	1143744	441	0
0	1146354	442	0
0	1148922	443	0
0	1151503	444	0
0	1154328	445	4
0	1156305	446	2
0	1159031	447	1
0	1161418	448	0
0	1163595	449	0
0	1165964	450	0
0	1168209	451	2
0	1170874	452	0
0	1173455	453	0
0	1176168	454	0
0	1178730	455	0
0	1181263	456	0
0	1183819	457	3
0	1186349	458	2
0	1189020	459	0
0	1191515	460	0
0	1194187	461	2
0	1196707	462	0
0	1199044	463	4
0	1201624	464	0
0	1204060	465	2
0	1206788	466	2
0	1209402	467	6
0	1211993	468	0
0	1214738	469	0
0	1217621	470	3
0	1220341	471	0
0	1223012	472	0
0	1225632	473	0
0	1228049	474	0
0	1230845	475	2
0	1233595	476	0
0	1236277	477	0
0	1238657	478	1
0	1240991	479	0
0	1243581	480	0
0	1246216	481	0
0	1248848	482	1
0	1251669	483	3
0	1254364	484	2
0	1257098	485	1
0	1259685	486	0
0	1262052	487	0
0	1264350	488	0
0	1266859	489	1
0	1269411	490	2
0	1271757	491	0
0	1274414	492	3
0	1277326	493	6
0	1279643	494	0
0	1282049	495	1
0	1284507	496	4
0	1287198	497	2
0	1290122	498	0
0	1292480	499	0
0	1295137	500	0
0	1297710	501	1
0	1300060	502	0
0	1302677	503	0
0	1305326	504	0
0	1307905	505	2
0	1310654	506	0
0	1312995	507	3
0	1315499	508	3
0	1318184	509	0
0	1320733	510	1
0	1323470	511	0
0	1326089	512	3
0	1328545	513	2
0	1331062	514	1
0	1333900	515	1
0	1336519	516	2
0	1339140	517	0
0	1341924	518	11
0	1344582	519	1
0	1347292	520	4
0	1350105	521	3
0	1352370	522	0
0	1355199	523	0
0	1357908	524	0
0	1360313	525	0
0	1362798	526	3
0	1365356	527	0
0	1367915	528	1
0	1370510	529	2
0	1372997	530	9
0	1375566	531	0
0	1377866	532	0
0	1380390	533	0
0	1383093	534	0
0	1385718	535	0
0	1388512	536	0
0	1391323	537	0
0	1393607	538	0
0	1396294	539	1
0	1398899	540	0
0	1401353	541	5
0	1404049	542	5
0	1406691	543	0
0	1409409	544	4
0	1411947	545	2
0	1414665	546	2
0	1417420	547	0
0	1420006	548	0
0	1422678	549	0
0	1425052	550	0
0	1427468	551	0
0	1429603	552	0
0	1432237	553	0
0	1434652	554	0
0	1437035	555	0
0	1439515	556	7
0	1442202	557	1
0	1444674	558	3
0	1447200	559	7
0	1449817	560	1
0	1452510	561	1
0	1455059	562	1
0	1457826	563	0
0	1460466	564	0
0	1463023	565	1
0	1465519	566	0
0	1468179	567	0
0	1470481	568	0
0	1472826	569	0
0	1475310	570	5
0	1477855	571	0
0	1480548	572	0
0	1482974	573	1
0	1485489	574	7
0	1487917	575	7
0	1490310	576	0
0	1493021	577	0
0	1495869	578	0
0	1498676	579	0
0	1501326	580	1
0	1503801	581	0
0	1506562	582	0
0	1508925	583	1
0	1511870	584	6
0	1514496	585	2
0	1517112	586	0
0	1519718	587	1
0	1522177	588	3
0	1524870	589	8
0	1527514	590	0
0	1530226	591	3
0	1532806	592	0
0	1535537	593	2
0	1538142	594	0
0	1540654	595	0
0	1543304	596	0
0	1545867	597	0
0	1548471	598	6
0	1550955	599	0
0	1553330	600	2
0	1556076	601	3
0	1558862	602	0
0	1561453	603	0
0	1563979	604	0
0	1566742	605	7
0	1569230	606	0
0	1571829	607	1
0	1574149	608	2
0	1576704	609	3
0	1579304	610	1
0	1582097	611	5
0	1584812	612	3
0	1587338	613	0
0	1589459	614	4
0	1592197	615	0
0	1594656	616	2
0	1596827	617	0
0	1599222	618	0
0	1601690	619	1
0	1604254	620	0
0	1606965	621	0
0	1609484	622	0
0	1612003	623	1
0	1614763	624	0
0	1617330	625	0
0	1619989	626	8
0	1622859	627	2
0	1625332	628	2
0	1627986	629	6
0	1630521	630	1
0	1632913	631	0
0	1635632	632	0
0	1638239	633	0
0	1640924	634	0
0	1643437	635	0
0	1646064	636	0
0	1648580	637	0
0	1650873	638	0
0	1653310	639	5
0	1655631	640	0
0	1658294	641	0
0	1660672	642	1
0	1663155	643	0
0	1665679	644	0
0	1668144	645	0
0	1670683	646	1
0	1673618	647	0
0	1676246	648	9
0	1678838	649	0
0	1681344	650	1
0	1683829	651	0
0	1686082	652	0
0	1688384	653	1
0	1691139	654	0
0	1693642	655	1
0	1696279	656	0
0	1698632	657	0
0	1701033	658	3
0	1703576	659	0
0	1706103	660	1
0	1708455	661	0
0	1711121	662	1
0	1713829	663	0
0	1716313	664	14
0	1718621	665	0
0	1721252	666	0
0	1723670	667	2
0	1726443	668	2
0	1729119	669	0
0	1731764	670	0
0	1734394	671	2
0	1737097	672	11
0	1739778	673	1
0	1742620	674	0
0	1745268	675	6
0	1748081	676	0
0	1750547	677	5
0	1752911	678	2
0	1755200	679	0
0	1757709	680	6
0	1760325	681	0
0	1763051	682	0
0	1765618	683	2
0	1768208	684	0
0	1771130	685	2
0	1773643	686	0
0	1775965	687	1
0	1778543	688	0
0	1781177	689	0
0	1783999	690	0
0	1786671	691	0
0	1789380	692	0
0	1791840	693	0
0	1794398	694	0
0	1796553	695	0
0	1798955	696	0
0	1801498	697	1
0	1803712	698	0
0	1806043	699	0
0	1808251	700	0
0	1810498	701	0
0	1813177	702	1
0	1815784	703	1
0	1818393	704	0
0	1820959	705	8
0	1823702	706	0
0	1826479	707	1
0	1828800	708	0
0	1831490	709	0
0	1834056	710	1
0	1836592	711	6
0	1839099	712	0
0	1841682	713	1
0	1844281	714	5
0	1846854	715	0
0	1849453	716	0
0	1852114	717	0
0	1854606	718	0
0	1857185	719	1
0	1859612	720	6
0	1862178	721	2
0	1864647	722	0
0	1866881	723	7
0	1869347	724	3
0	1872151	725	7
0	1874894	726	3
0	1877507	727	0
0	1879992	728	0
0	1882504	729	0
0	1885082	730	0
0	1887799	731	2
0	1890283	732	1
0	1892889	733	3
0	1895799	734	1
0	1898434	735	0
0	1900818	736	8
0	1903542	737	12
0	1906135	738	2
0	1908722	739	13
0	1911321	740	3
0	1913859	741	0
0	1916257	742	2
0	1918923	743	4
0	1921537	744	2
0	1923887	745	2
0	1926458	746	3
0	1929040	747	1
0	1931412	748	0
0	1934013	749	4
0	1936761	750	6
0	1939235	751	5
0	1941851	752	0
0	1944394	753	0
0	1947067	754	0
0	1949434	755	0
0	1952127	756	0
0	1954683	757	1
0	1957475	758	0
0	1960156	759	0
0	1962709	760	10
0	1965343	761	1
0	1968051	762	0
0	1970797	763	6
0	1973140	764	0
0	1975772	765	7
0	1978296	766	0
0	1980947	767	0
0	1983496	768	4
0	1985939	769	4
0	1988652	770	8
0	1991377	771	1
0	1993956	772	3
0	1996349	773	0
0	1999001	774	0
0	2001566	775	7
0	2004176	776	0
0	2006931	777	0
0	2009660	778	0
0	2012348	779	0
0	2015135	780	0
0	2018028	781	7
0	2020704	782	0
0	2023375	783	0
0	2025831	784	0
0	2028556	785	2
0	2031051	786	3
0	2033441	787	0
0	2035680	788	0
0	2038400	789	0
0	2040847	790	1
0	2043456	791	1
0	2046048	792	0
0	2048886	793	4
0	2051252	794	4
0	2053707	795	0
0	2055968	796	1
0	2058137	797	0
0	2060685	798	0
0	2063066	799	3
0	2065949	800	1
0	2068463	801	0
0	2071196	802	0
0	2073739	803	1
0	2076577	804	2
0	2079257	805	0
0	2082001	806	0
0	2084628	807	0
0	2087243	808	2
0	2089921	809	1
0	2092424	810	0
0	2094963	811	2
0	2097422	812	2
0	2100198	813	3
0	2102777	814	0
0	2105399	815	17
0	2108181	816	5
0	2110904	817	1
0	2113595	818	0
0	2116198	819	0
0	2118813	820	0
0	2121349	821	1
0	2123938	822	0
0	2126320	823	2
0	2128913	824	3
0	2131721	825	1
0	2134342	826	3
0	2136874	827	0
0	2139447	828	7
0	2141884	829	5
0	2144457	830	1
0	2147108	831	0
0	2149919	832	3
0	2152528	833	11
0	2155261	834	6
0	2157778	835	6
0	2160411	836	0
0	2162986	837	8
0	2165574	838	0
0	2168156	839	7
0	2170706	840	0
0	2173217	841	0
0	2176058	842	0
0	2178540	843	0
0	2181095	844	2
0	2183881	845	5
0	2186578	846	2
0	2189138	847	0
0	2191687	848	2
0	2194381	849	4
0	2197069	850	4
0	2199430	851	0
0	2202034	852	7
0	2204525	853	0
0	2206934	854	0
0	2209461	855	0
0	2211915	856	1
0	2214657	857	0
0	2217303	858	5
0	2219799	859	1
0	2222189	860	1
0	2224994	861	6
0	2227652	862	0
0	2230132	863	0
0	2232788	864	14
0	2235363	865	0
0	2237910	866	1
0	2240621	867	0
0	2243209	868	7
0	2245765	869	4
0	2248264	870	0
0	2251021	871	0
0	2253814	872	3
0	2256602	873	3
0	2259213	874	1
0	2261755	875	0
0	2264229	876	0
0	2266810	877	1
0	2269381	878	0
0	2272082	879	0
0	2274492	880	1
0	2276968	881	0
0	2279718	882	0
0	2282123	883	1
0	2284712	884	2
0	2287142	885	2
0	2289716	886	0
0	2292149	887	0
0	2294740	888	1
0	2297154	889	2
0	2299629	890	1
0	2301928	891	0
0	2304592	892	3
0	2307164	893	0
0	2309686	894	0
0	2312242	895	4
0	2314734	896	0
0	2317237	897	0
0	2319899	898	3
0	2322488	899	1
0	2324976	900	1
0	2327556	901	0
0	2330429	902	7
0	2333139	903	0
0	2335670	904	6
0	2338427	905	0
0	2341068	906	0
0	2343740	907	0
0	2346155	908	1
0	2348782	909	0
0	2351497	910	1
0	2353850	911	0
0	2356588	912	0
0	2359258	913	0
0	2361830	914	2
0	2364263	915	0
0	2366751	916	0
0	2369168	917	11
0	2371870	918	0
0	2374441	919	2
0	2377228	920	0
0	2380069	921	0
0	2382698	922	1
0	2385354	923	0
0	2388022	924	0
0	2390784	925	0
0	2393526	926	3
0	2396049	927	2
0	2398467	928	4
0	2401317	929	0
0	2403806	930	0
0	2406522	931	1
0	2409123	932	0
0	2411689	933	1
0	2414424	934	4
0	2417037	935	0
0	2419558	936	0
0	2422241	937	0
0	2424823	938	0
0	2427139	939	2
0	2429719	940	5
0	2432367	941	4
0	2434960	942	0
0	2437471	943	0
0	2439817	944	6
0	2442190	945	1
0	2444782	946	0
0	2447384	947	1
0	2450068	948	1
0	2452720	949	2
0	2455247	950	0
0	2457675	951	0
0	2460680	952	0
0	2463427	953	0
0	2465872	954	2
0	2468609	955	2
0	2471377	956	1
0	2474028	957	0
0	2476588	958	0
0	2479209	959	1
0	2481837	960	1
0	2484310	961	1
0	2486823	962	0
0	2489388	963	2
0	2492114	964	0
0	2494681	965	1
0	2497217	966	1
0	2499813	967	1
0	2502137	968	2
0	2504620	969	7
0	2507388	970	2
0	2510426	971	0
0	2513136	972	0
0	2515735	973	2
0	2518231	974	0
0	2520877	975	3
0	2523338	976	4
0	2526290	977	0
0	2528642	978	1
0	2531178	979	2
0	2533745	980	1
0	2536182	981	0
0	2538589	982	2
0	2541165	983	0
0	2543844	984	3
0	2546487	985	6
0	2549203	986	0
0	2551518	987	0
0	2554053	988	0
0	2556399	989	0
0	2558892	990	1
0	2561475	991	1
0	2563909	992	0
0	2566596	993	0
0	2569068	994	0
0	2571805	995	0
0	2574608	996	0
0	2577244	997	2
0	2580120	998	1
0	2582969	999	0
0	2585469	1000	0
0	2588236	1001	0
0	2590824	1002	2
0	2593413	1003	1
0	2596054	1004	3
0	2598605	1005	1
0	2600821	1006	4
0	2603364	1007	1
0	2605908	1008	1
0	2608655	1009	0
0	2611225	1010	0
0	2613726	1011	0
0	2616095	1012	1
0	2618665	1013	2
0	2621155	1014	1
0	2623593	1015	0
0	2626147	1016	4
0	2628733	1017	2
0	2631464	1018	1
0	2633998	1019	0
0	2636490	1020	4
0	2639098	1021	1
0	2641706	1022	0
0	2644415	1023	0
0	2646969	1024	0
0	2649313	1025	1
0	2652119	1026	4
0	2654613	1027	0
0	2657104	1028	3
0	2659694	1029	1
0	2662221	1030	0
0	2664874	1031	7
0	2667405	1032	0
0	2670077	1033	0
0	2672804	1034	0
0	2675362	1035	2
0	2677893	1036	0
0	2680402	1037	0
0	2682913	1038	0
0	2685675	1039	2
0	2688305	1040	4
0	2690715	1041	1
0	2693536	1042	6
0	2696101	1043	4
0	2698750	1044	0
0	2701373	1045	0
0	2704092	1046	9
0	2706682	1047	1
0	2709211	1048	0
0	2711758	1049	0
0	2714169	1050	2
0	2716795	1051	0
0	2719381	1052	0
0	2721871	1053	0
0	2724456	1054	2
0	2726874	1055	3
0	2729296	1056	1
0	2731551	1057	0
0	2734305	1058	0
0	2737022	1059	0
0	2739848	1060	1
0	2742429	1061	0
0	2744977	1062	1
0	2747633	1063	0
0	2750065	1064	1
0	2752613	1065	0
0	2755158	1066	0
0	2757813	1067	0
0	2760277	1068	0
0	2762830	1069	6
0	2765306	1070	0
0	2768022	1071	1
0	2770589	1072	0
0	2773087	1073	0
0	2775670	1074	0
0	2778085	1075	11
0	2780825	1076	0
0	2783400	1077	0
0	2786083	1078	2
0	2788771	1079	6
0	2791327	1080	6
0	2794005	1081	3
0	2796699	1082	1
0	2799299	1083	0
0	2801874	1084	1
0	2804562	1085	0
0	2807116	1086	0
0	2809493	1087	0
0	2811881	1088	0
0	2814433	1089	0
0	2816883	1090	0
0	2819481	1091	14
0	2821821	1092	3
0	2824287	1093	0
0	2826928	1094	3
0	2829494	1095	1
0	2832130	1096	0
0	2834516	1097	4
0	2837214	1098	0
0	2839528	1099	0
0	2841997	1100	5
0	2844479	1101	3
0	2847111	1102	0
0	2850025	1103	0
0	2852656	1104	0
0	2855210	1105	0
0	2857545	1106	0
0	2860116	1107	7
0	2862699	1108	1
0	2865190	1109	0
0	2867850	1110	4
0	2870331	1111	0
0	2872559	1112	2
0	2875188	1113	0
0	2877566	1114	0
0	2880092	1115	0
0	2882813	1116	0
0	2885564	1117	0
0	2888154	1118	1
0	2890905	1119	0
0	2893503	1120	4
0	2896118	1121	0
0	2898816	1122	0
0	2901324	1123	0
0	2904173	1124	0
0	2906803	1125	0
0	2909590	1126	1
0	2912220	1127	0
0	2915007	1128	0
0	2917245	1129	5
0	2919618	1130	0
0	2922160	1131	1
0	2924867	1132	0
0	2927498	1133	5
0	2930386	1134	5
0	2932846	1135	0
0	2935576	1136	1
0	2938064	1137	0
0	2940579	1138	0
0	2943209	1139	2
0	2945579	1140	0
0	2948174	1141	1
0	2950927	1142	2
0	2953492	1143	0
0	2956099	1144	0
0	2958918	1145	0
0	2961426	1146	0
0	2963886	1147	0
0	2966405	1148	0
0	2968940	1149	0
0	2971746	1150	1
0	2974437	1151	2
0	2977054	1152	0
0	2979658	1153	2
0	2982191	1154	0
0	2984731	1155	0
0	2987099	1156	1
0	2989835	1157	0
0	2992228	1158	3
0	2994865	1159	1
0	2997385	1160	2
0	2999895	1161	4
0	3002354	1162	3
0	3004835	1163	1
0	3007396	1164	4
0	3010137	1165	4
0	3012765	1166	0
0	3015274	1167	3
0	3017719	1168	7
0	3020417	1169	6
0	3023057	1170	2
0	3025713	1171	0
0	3028344	1172	0
0	3030925	1173	0
0	3033385	1174	0
0	3036025	1175	1
0	3038576	1176	0
0	3041254	1177	0
0	3043985	1178	0
0	3047008	1179	1
0	3049662	1180	0
0	3052074	1181	9
0	3054863	1182	0
0	3057376	1183	0
0	3059882	1184	0
0	3062335	1185	2
0	3064897	1186	3
0	3067435	1187	0
0	3070117	1188	5
0	3072864	1189	0
0	3075508	1190	0
0	3078091	1191	4
0	3080818	1192	3
0	3083278	1193	0
0	3086001	1194	5
0	3088464	1195	0
0	3090915	1196	0
0	3093597	1197	0
0	3096222	1198	0
0	3098781	1199	0
0	3101538	1200	9
0	3104125	1201	0
0	3106593	1202	0
0	3109213	1203	0
0	3111655	1204	0
0	3114346	1205	3
0	3116833	1206	1
0	3119300	1207	2
0	3121654	1208	3
0	3124282	1209	0
0	3127089	1210	1
0	3129509	1211	4
0	3132264	1212	6
0	3135179	1213	6
0	3137641	1214	0
0	3140344	1215	0
0	3142770	1216	1
0	3145350	1217	0
0	3147975	1218	9
0	3150446	1219	0
0	3152821	1220	0
0	3155346	1221	0
0	3157900	1222	0
0	3160412	1223	0
0	3162742	1224	0
0	3165332	1225	0
0	3167879	1226	0
0	3170221	1227	0
0	3172687	1228	0
0	3175170	1229	0
0	3177776	1230	0
0	3180311	1231	2
0	3182944	1232	5
0	3185312	1233	3
0	3188168	1234	1
0	3190538	1235	0
0	3192928	1236	8
0	3195542	1237	0
0	3197978	1238	0
0	3200548	1239	1
0	3203344	1240	0
0	3206029	1241	0
0	3208556	1242	1
0	3211382	1243	0
0	3214151	1244	0
0	3216719	1245	3
0	3219134	1246	0
0	3221573	1247	4
0	3224177	1248	3
0	3226745	1249	2
0	3229254	1250	0
0	3232177	1251	6
0	3234779	1252	0
0	3237433	1253	0
0	3240104	1254	4
0	3242657	1255	9
0	3245215	1256	8
0	3247737	1257	0
0	3250165	1258	0
0	3252658	1259	0
0	3255198	1260	0
0	3257699	1261	1
0	3260524	1262	1
0	3263182	1263	3
0	3265566	1264	0
0	3268342	1265	2
0	3271024	1266	0
0	3273610	1267	0
0	3276212	1268	0
0	3278748	1269	0
0	3281091	1270	1
0	3283243	1271	0
0	3285954	1272	2
0	3288345	1273	0
0	3290649	1274	3
0	3293247	1275	5
0	3295792	1276	0
0	3298274	1277	0
0	3300881	1278	0
0	3303413	1279	9
0	3305895	1280	0
0	3308617	1281	4
0	3311373	1282	0
0	3314139	1283	0
0	3316704	1284	0
0	3319176	1285	0
0	3321588	1286	1
0	3323785	1287	0
0	3326388	1288	2
0	3328814	1289	2
0	3331353	1290	5
0	3333948	1291	0
0	3336502	1292	0
0	3339054	1293	0
0	3341402	1294	1
0	3344096	1295	5
0	3346565	1296	3
0	3349026	1297	1
0	3351384	1298	5
0	3353705	1299	2
0	3356236	1300	2
0	3358799	1301	0
0	3361081	1302	0
0	3363630	1303	0
0	3366052	1304	5
0	3368466	1305	2
0	3370881	1306	2
0	3373286	1307	2
0	3375836	1308	0
0	3378143	1309	0
0	3380507	1310	0
0	3382969	1311	8
0	3385646	1312	3
0	3388091	1313	0
0	3390385	1314	0
0	3392843	1315	2
0	3395454	1316	0
0	3397965	1317	5
0	3400526	1318	19
0	3403024	1319	0
0	3405561	1320	3
0	3408178	1321	0
0	3410799	1322	0
0	3413264	1323	0
0	3416056	1324	2
0	3418778	1325	6
0	3421328	1326	0
0	3423923	1327	3
0	3426480	1328	0
0	3429159	1329	0
0	3431949	1330	1
0	3434219	1331	0
0	3436782	1332	2
0	3439559	1333	2
0	3442027	1334	0
0	3444606	1335	0
0	3447245	1336	0
0	3449706	1337	7
0	3452450	1338	1
0	3455081	1339	0
0	3457663	1340	0
0	3460181	1341	0
0	3462983	1342	0
0	3465527	1343	0
0	3467667	1344	3
0	3470216	1345	1
0	3472766	1346	0
0	3475370	1347	3
0	3478036	1348	4
0	3480557	1349	3
0	3483383	1350	3
0	3485922	1351	0
0	3488463	1352	8
0	3491067	1353	0
0	3493804	1354	2
0	3496288	1355	0
0	3498797	1356	0
0	3501417	1357	1
0	3503744	1358	2
0	3506057	1359	5
0	3508369	1360	9
0	3511100	1361	0
0	3513780	1362	0
0	3516211	1363	0
0	3518653	1364	0
0	3521243	1365	0
0	3524037	1366	9
0	3526734	1367	0
0	3529105	1368	0
0	3531759	1369	4
0	3534239	1370	1
0	3536908	1371	0
0	3539611	1372	7
0	3542246	1373	12
0	3545115	1374	4
0	3547844	1375	3
0	3550457	1376	0
0	3553274	1377	1
0	3555914	1378	9
0	3558428	1379	1
0	3560913	1380	3
0	3563582	1381	2
0	3566164	1382	0
0	3568313	1383	0
0	3570804	1384	10
0	3573593	1385	7
0	3576396	1386	0
0	3578916	1387	2
0	3581762	1388	1
0	3584417	1389	0
0	3587049	1390	4
0	3589825	1391	1
0	3592433	1392	5
0	3595061	1393	0
0	3597653	1394	1
0	3600227	1395	2
0	3602615	1396	0
0	3605407	1397	0
0	3607947	1398	0
0	3610504	1399	0
0	3613017	1400	0
0	3615580	1401	1
0	3617936	1402	0
0	3620689	1403	3
0	3623388	1404	0
0	3625956	1405	1
0	3628405	1406	2
0	3630929	1407	0
0	3633474	1408	0
0	3635892	1409	0
0	3638440	1410	9
0	3641047	1411	0
0	3643640	1412	6
0	3646234	1413	0
0	3648594	1414	0
0	3651204	1415	2
0	3654039	1416	11
0	3656719	1417	7
0	3659299	1418	0
0	3661787	1419	0
0	3664315	1420	0
0	3666571	1421	0
0	3668942	1422	0
0	3671565	1423	0
0	3673930	1424	5
0	3676808	1425	0
0	3679430	1426	0
0	3682090	1427	17
0	3684710	1428	0
0	3686921	1429	0
0	3689600	1430	0
0	3692204	1431	1
0	3694995	1432	0
0	3697786	1433	2
0	3700263	1434	0
0	3702993	1435	1
0	3705519	1436	5
0	3708035	1437	1
0	3710548	1438	1
0	3713255	1439	0
0	3715570	1440	0
0	3718031	1441	1
0	3720570	1442	6
0	3723142	1443	2
0	3725600	1444	2
0	3728085	1445	0
0	3730684	1446	0
0	3733017	1447	0
0	3735603	1448	0
0	3738352	1449	0
0	3740832	1450	1
0	3743356	1451	4
0	3746033	1452	5
0	3748628	1453	4
0	3751186	1454	0
0	3753790	1455	0
0	3756304	1456	0
0	3758886	1457	0
0	3761497	1458	0
0	3763976	1459	5
0	3766554	1460	1
0	3768960	1461	3
0	3771410	1462	1
0	3773882	1463	0
0	3776466	1464	0
0	3779146	1465	5
0	3781662	1466	0
0	3784463	1467	0
0	3787062	1468	2
0	3789543	1469	0
0	3792104	1470	0
0	3794635	1471	2
0	3797341	1472	0
0	3800137	1473	0
0	3803127	1474	2
0	3805861	1475	0
0	3808296	1476	0
0	3810904	1477	1
0	3813283	1478	0
0	3816011	1479	0
0	3818302	1480	1
0	3820567	1481	0
0	3823083	1482	0
0	3825802	1483	0
0	3828227	1484	0
0	3830682	1485	2
0	3833171	1486	0
0	3835722	1487	1
0	3838333	1488	0
0	3841121	1489	4
0	3843544	1490	1
0	3846361	1491	3
0	3848992	1492	0
0	3851633	1493	1
0	3854260	1494	0
0	3856958	1495	1
0	3859528	1496	0
0	3862303	1497	0
0	3864819	1498	0
0	3867368	1499	0
0	3870049	1500	0
0	3872481	1501	0
0	3875250	1502	2
0	3877894	1503	1
0	3880203	1504	0
0	3882744	1505	1
0	3885412	1506	4
0	3888105	1507	9
0	3890809	1508	0
0	3893305	1509	4
0	3895901	1510	1
0	3898374	1511	4
0	3901217	1512	0
0	3903769	1513	2
0	3906702	1514	3
0	3909454	1515	5
0	3912346	1516	7
0	3915138	1517	5
0	3917800	1518	2
0	3920659	1519	2
0	3923269	1520	1
0	3925817	1521	0
0	3928221	1522	0
0	3930657	1523	0
0	3933212	1524	3
0	3935814	1525	0
0	3938358	1526	2
0	3940532	1527	0
0	3943012	1528	0
0	3945694	1529	1
0	3948654	1530	0
0	3951205	1531	4
0	3953879	1532	2
0	3956605	1533	0
0	3959116	1534	3
0	3961632	1535	3
0	3964152	1536	2
0	3966656	1537	0
0	3969254	1538	0
0	3971929	1539	2
0	3974617	1540	1
0	3977306	1541	0
0	3979859	1542	6
0	3982543	1543	0
0	3985202	1544	1
0	3987920	1545	0
0	3990412	1546	1
0	3993117	1547	0
0	3995817	1548	0
0	3998383	1549	0
0	4000917	1550	0
0	4003244	1551	0
0	4005910	1552	0
0	4008298	1553	0
0	4010482	1554	0
0	4013073	1555	0
0	4016040	1556	1
0	4018717	1557	1
0	4021340	1558	2
0	4023890	1559	2
0	4026470	1560	3
0	4028965	1561	0
0	4031564	1562	0
0	4034136	1563	0
0	4036826	1564	0
0	4039430	1565	0
0	4041401	1566	0
0	4043429	1567	0
0	4046062	1568	7
0	4048778	1569	0
0	4051133	1570	0
0	4053695	1571	1
0	4056217	1572	0
0	4058911	1573	10
0	4061252	1574	2
0	4063864	1575	5
0	4066445	1576	0
0	4068915	1577	1
0	4071474	1578	5
0	4074138	1579	5
0	4076915	1580	2
0	4079508	1581	0
0	4081996	1582	1
0	4084430	1583	1
0	4086915	1584	0
0	4089361	1585	7
0	4091912	1586	0
0	4094338	1587	3
0	4096893	1588	0
0	4099178	1589	0
0	4101720	1590	4
0	4104116	1591	1
0	4106741	1592	13
0	4109087	1593	0
0	4111728	1594	6
0	4114101	1595	0
0	4116507	1596	3
0	4118987	1597	2
0	4121721	1598	2
0	4124465	1599	2
0	4126895	1600	7
0	4129657	1601	3
0	4132177	1602	0
0	4134850	1603	1
0	4137380	1604	0
0	4140244	1605	3
0	4143148	1606	5
0	4145875	1607	9
0	4148373	1608	3
0	4151048	1609	4
0	4153603	1610	0
0	4156176	1611	0
0	4158615	1612	0
0	4161454	1613	0
0	4164154	1614	0
0	4166774	1615	5
0	4169290	1616	0
0	4171955	1617	0
0	4174529	1618	2
0	4177073	1619	2
0	4180016	1620	5
0	4182563	1621	0
0	4185195	1622	0
0	4187759	1623	5
0	4190077	1624	1
0	4192400	1625	0
0	4194956	1626	3
0	4197539	1627	3
0	4199883	1628	0
0	4202363	1629	4
0	4204809	1630	0
0	4207342	1631	9
0	4210171	1632	1
0	4212799	1633	2
0	4215759	1634	1
0	4218329	1635	0
0	4220623	1636	0
0	4223301	1637	0
0	4225773	1638	1
0	4228430	1639	3
0	4231059	1640	2
0	4233653	1641	1
0	4236287	1642	8
0	4238620	1643	2
0	4241377	1644	8
0	4244036	1645	2
0	4246673	1646	2
0	4249246	1647	1
0	4251641	1648	3
0	4254188	1649	2
0	4257006	1650	12
0	4259814	1651	1
0	4262346	1652	0
0	4265218	1653	1
0	4267505	1654	0
0	4270111	1655	1
0	4272719	1656	0
0	4275296	1657	0
0	4278137	1658	0
0	4280870	1659	0
0	4283402	1660	3
0	4286032	1661	0
0	4288522	1662	0
0	4290914	1663	0
0	4293313	1664	6
0	4295827	1665	2
0	4298400	1666	0
0	4301095	1667	0
0	4303754	1668	3
0	4306145	1669	1
0	4308731	1670	0
0	4311114	1671	0
0	4313502	1672	6
0	4316283	1673	1
0	4318982	1674	4
0	4321846	1675	10
0	4324449	1676	0
0	4326976	1677	10
0	4329341	1678	0
0	4331901	1679	1
0	4334598	1680	0
0	4337170	1681	2
0	4339958	1682	0
0	4342392	1683	0
0	4345063	1684	1
0	4347833	1685	0
0	4350414	1686	1
0	4353022	1687	6
0	4355596	1688	0
0	4358246	1689	0
0	4360685	1690	0
0	4363217	1691	3
0	4365898	1692	0
0	4368413	1693	2
0	4370776	1694	2
0	4373384	1695	1
0	4376018	1696	4
0	4378703	1697	0
0	4381301	1698	1
0	4383876	1699	4
0	4386357	1700	0
0	4388938	1701	0
0	4391625	1702	0
0	4394122	1703	4
0	4396651	1704	1
0	4399002	1705	0
0	4401757	1706	0
0	4404292	1707	2
0	4406972	1708	0
0	4409801	1709	0
0	4412383	1710	3
0	4414760	1711	2
0	4417400	1712	0
0	4420003	1713	0
0	4422695	1714	0
0	4425295	1715	2
0	4428030	1716	4
0	4430701	1717	9
0	4433244	1718	0
0	4435844	1719	1
0	4438143	1720	0
0	4440687	1721	2
0	4443311	1722	10
0	4446080	1723	4
0	4448777	1724	0
0	4451233	1725	2
0	4453573	1726	0
0	4456167	1727	0
0	4458674	1728	0
0	4461401	1729	2
0	4463982	1730	0
0	4466441	1731	0
0	4469023	1732	0
0	4471574	1733	0
0	4474343	1734	3
0	4477007	1735	7
0	4479836	1736	15
0	4482329	1737	0
0	4484641	1738	2
0	4486915	1739	0
0	4489326	1740	0
0	4492300	1741	2
0	4495087	1742	2
0	4497805	1743	0
0	4500393	1744	0
0	4502944	1745	0
0	4505905	1746	0
0	4508437	1747	0
0	4511008	1748	1
0	4513807	1749	5
0	4516458	1750	14
0	4519153	1751	0
0	4521683	1752	0
0	4524330	1753	3
0	4526853	1754	1
0	4529230	1755	3
0	4531996	1756	0
0	4534798	1757	1
0	4537228	1758	0
0	4539950	1759	6
0	4542695	1760	2
0	4545316	1761	0
0	4547522	1762	1
0	4550175	1763	0
0	4552836	1764	1
0	4555276	1765	0
0	4557707	1766	3
0	4560491	1767	2
0	4563067	1768	0
0	4565641	1769	6
0	4568198	1770	2
0	4570855	1771	4
0	4573369	1772	6
0	4575871	1773	5
0	4578570	1774	4
0	4581342	1775	0
0	4583932	1776	3
0	4586316	1777	5
0	4588950	1778	2
0	4591325	1779	0
0	4593845	1780	2
0	4596626	1781	1
0	4599251	1782	4
0	4601834	1783	2
0	4604102	1784	1
0	4606636	1785	2
0	4609197	1786	4
0	4611915	1787	0
0	4614411	1788	1
0	4616980	1789	0
0	4619803	1790	3
0	4622432	1791	2
0	4624907	1792	0
0	4627507	1793	2
0	4630208	1794	1
0	4632926	1795	0
0	4635376	1796	8
0	4638082	1797	0
0	4640775	1798	3
0	4643515	1799	1
0	4646093	1800	0
0	4648816	1801	0
0	4651435	1802	0
0	4653957	1803	0
0	4656963	1804	5
0	4659519	1805	0
0	4662191	1806	0
0	4664831	1807	0
0	4667608	1808	4
0	4670185	1809	0
0	4672846	1810	0
0	4675439	1811	5
0	4678032	1812	1
0	4680729	1813	0
0	4683367	1814	5
0	4685906	1815	0
0	4688444	1816	0
0	4691138	1817	5
0	4693836	1818	0
0	4696328	1819	1
0	4699113	1820	2
0	4701418	1821	0
0	4703706	1822	0
0	4706229	1823	0
0	4708663	1824	1
0	4711240	1825	0
0	4713716	1826	0
0	4716134	1827	0
0	4718708	1828	2
0	4721283	1829	1
0	4723724	1830	0
0	4726437	1831	0
0	4729290	1832	6
0	4731787	1833	0
0	4734315	1834	3
0	4737023	1835	3
0	4739696	1836	1
0	4742337	1837	0
0	4744951	1838	0
0	4747507	1839	2
0	4750315	1840	0
0	4753024	1841	0
0	4755559	1842	0
0	4758076	1843	0
0	4760664	1844	0
0	4763203	1845	4
0	4765620	1846	0
0	4768544	1847	1
0	4771015	1848	0
0	4773754	1849	2
0	4776183	1850	2
0	4778727	1851	0
0	4781462	1852	0
0	4784006	1853	0
0	4786320	1854	2
0	4788966	1855	1
0	4791532	1856	4
0	4794227	1857	11
0	4796952	1858	0
0	4799744	1859	7
0	4802373	1860	0
0	4804978	1861	0
0	4807700	1862	0
0	4810265	1863	0
0	4812865	1864	1
0	4815552	1865	4
0	4817746	1866	5
0	4820452	1867	0
0	4823214	1868	3
0	4825600	1869	0
0	4828424	1870	3
0	4831198	1871	2
0	4833702	1872	0
0	4836260	1873	3
0	4838936	1874	6
0	4841560	1875	0
0	4844019	1876	0
0	4846798	1877	0
0	4849264	1878	0
0	4851758	1879	0
0	4854272	1880	3
0	4856847	1881	1
0	4859320	1882	5
0	4861843	1883	0
0	4864593	1884	1
0	4867198	1885	2
0	4869614	1886	0
0	4872253	1887	4
0	4875090	1888	6
0	4877815	1889	1
0	4880486	1890	0
0	4883223	1891	6
0	4885643	1892	0
0	4888355	1893	18
0	4890848	1894	0
0	4893217	1895	0
0	4895702	1896	1
0	4898214	1897	0
0	4900851	1898	2
0	4903556	1899	4
0	4906150	1900	1
0	4908505	1901	0
0	4910951	1902	5
0	4913300	1903	0
0	4915554	1904	3
0	4918058	1905	3
0	4920786	1906	0
0	4923221	1907	1
0	4925816	1908	0
0	4928249	1909	0
0	4930657	1910	1
0	4933089	1911	0
0	4935742	1912	0
0	4938267	1913	1
0	4940769	1914	0
0	4943398	1915	8
0	4946079	1916	0
0	4948804	1917	1
0	4951391	1918	4
0	4953871	1919	2
0	4956479	1920	3
0	4958943	1921	0
0	4961286	1922	0
0	4963811	1923	0
0	4966375	1924	2
0	4968890	1925	1
0	4971464	1926	0
0	4973871	1927	0
0	4976685	1928	0
0	4979262	1929	5
0	4981707	1930	4
0	4984393	1931	0
0	4987004	1932	2
0	4989585	1933	2
0	4992371	1934	5
0	4995024	1935	0
0	4997525	1936	1
0	5000380	1937	0
0	5002717	1938	0
0	5005252	1939	0
0	5007829	1940	2
0	5010221	1941	2
0	5012760	1942	0
0	5015223	1943	1
0	5017676	1944	7
0	5020066	1945	0
0	5022826	1946	4
0	5025355	1947	0
0	5028280	1948	3
0	5030984	1949	0
0	5033570	1950	1
0	5036334	1951	1
0	5038851	1952	6
0	5041502	1953	0
0	5043975	1954	0
0	5046719	1955	0
0	5049282	1956	5
0	5052065	1957	0
0	5054338	1958	2
0	5056752	1959	3
0	5059430	1960	2
0	5062208	1961	3
0	5064920	1962	4
0	5067764	1963	2
0	5070476	1964	0
0	5073155	1965	4
0	5076038	1966	0
0	5078348	1967	0
0	5081035	1968	0
0	5083559	1969	0
0	5086015	1970	2
0	5088362	1971	3
0	5090861	1972	0
0	5093644	1973	1
0	5096020	1974	2
0	5098698	1975	0
0	5101289	1976	0
0	5103817	1977	3
0	5106601	1978	0
0	5109279	1979	0
0	5111825	1980	3
0	5114628	1981	0
0	5117224	1982	0
0	5119856	1983	1
0	5122219	1984	0
0	5124853	1985	2
0	5127622	1986	5
0	5130058	1987	2
0	5132711	1988	1
0	5135338	1989	0
0	5137950	1990	0
0	5140449	1991	2
0	5142823	1992	0
0	5145121	1993	0
0	5147708	1994	0
0	5150203	1995	4
0	5152739	1996	0
0	5155297	1997	4
0	5157611	1998	0
0	5160169	1999	0
0	5162696	2000	3
0	5165089	2001	8
0	5167748	2002	0
0	5170242	2003	6
0	5172808	2004	0
0	5175318	2005	0
0	5178110	2006	0
0	5180532	2007	0
0	5182760	2008	0
0	5185487	2009	7
0	5188128	2010	5
0	5190486	2011	1
0	5193137	2012	0
0	5195567	2013	0
0	5198080	2014	1
0	5200634	2015	0
0	5203177	2016	1
0	5205877	2017	0
0	5208498	2018	1
0	5210974	2019	2
0	5213703	2020	3
0	5216582	2021	4
0	5219308	2022	4
0	5221986	2023	1
0	5224626	2024	0
0	5227245	2025	0
0	5229803	2026	2
0	5232061	2027	0
0	5234434	2028	1
0	5236844	2029	0
0	5239522	2030	5
0	5241991	2031	1
0	5244718	2032	1
0	5247379	2033	4
0	5250137	2034	1
0	5252576	2035	14
0	5255189	2036	0
0	5257552	2037	0
0	5259999	2038	7
0	5262566	2039	0
0	5265126	2040	6
0	5267774	2041	0
0	5270321	2042	4
0	5273029	2043	0
0	5275589	2044	4
0	5278336	2045	0
0	5281045	2046	1
0	5283558	2047	2
0	5286402	2048	5
0	5289067	2049	0
0	5291536	2050	4
0	5294171	2051	3
0	5296700	2052	0
0	5299475	2053	2
0	5302024	2054	1
0	5304547	2055	0
0	5306818	2056	4
0	5309705	2057	2
0	5312300	2058	2
0	5314935	2059	9
0	5317312	2060	0
0	5320033	2061	1
0	5322666	2062	7
0	5325269	2063	0
0	5327668	2064	0
0	5330377	2065	0
0	5332928	2066	1
0	5335348	2067	2
0	5338067	2068	0
0	5340768	2069	0
0	5343431	2070	10
0	5345825	2071	4
0	5348077	2072	2
0	5350720	2073	7
0	5353190	2074	0
0	5355939	2075	0
0	5358776	2076	0
0	5361326	2077	3
0	5363794	2078	0
0	5366489	2079	7
0	5369097	2080	5
0	5371753	2081	3
0	5374210	2082	2
0	5376465	2083	0
0	5379105	2084	0
0	5381762	2085	1
0	5384428	2086	0
0	5387144	2087	8
0	5389997	2088	2
0	5392396	2089	0
0	5394923	2090	1
0	5397383	2091	1
0	5399881	2092	0
0	5402520	2093	9
0	5405304	2094	14
0	5407927	2095	0
0	5410392	2096	5
0	5412978	2097	7
0	5415619	2098	3
0	5418268	2099	0
0	5420929	2100	0
0	5423756	2101	5
0	5426477	2102	0
0	5429238	2103	2
0	5431875	2104	10
0	5434431	2105	0
0	5437068	2106	1
0	5439780	2107	0
0	5442271	2108	0
0	5444782	2109	0
0	5447267	2110	2
0	5449702	2111	0
0	5452484	2112	6
0	5455033	2113	0
0	5457377	2114	0
0	5459814	2115	0
0	5462482	2116	5
0	5465299	2117	0
0	5467837	2118	4
0	5470593	2119	1
0	5473179	2120	7
0	5475834	2121	2
0	5478261	2122	1
0	5480623	2123	0
0	5483221	2124	1
0	5485663	2125	0
0	5488135	2126	0
0	5490719	2127	2
0	5493296	2128	0
0	5495641	2129	0
0	5498126	2130	0
0	5500669	2131	0
0	5503319	2132	0
0	5505927	2133	5
0	5508676	2134	0
0	5511324	2135	0
0	5513873	2136	1
0	5516605	2137	2
0	5519210	2138	0
0	5521814	2139	0
0	5524408	2140	3
0	5527006	2141	0
0	5529481	2142	4
0	5531969	2143	0
0	5534625	2144	3
0	5537250	2145	0
0	5539934	2146	1
0	5542418	2147	1
0	5544846	2148	0
0	5547344	2149	1
0	5549874	2150	0
0	5552314	2151	0
0	5555125	2152	0
0	5557865	2153	0
0	5560814	2154	1
0	5563587	2155	0
0	5565845	2156	3
0	5568338	2157	1
0	5570764	2158	10
0	5573324	2159	1
0	5575890	2160	4
0	5578645	2161	2
0	5581331	2162	0
0	5584270	2163	2
0	5586722	2164	0
0	5589394	2165	8
0	5592180	2166	1
0	5594927	2167	0
0	5597433	2168	3
0	5599921	2169	0
0	5602521	2170	1
0	5604930	2171	3
0	5607420	2172	1
0	5610035	2173	1
0	5612513	2174	6
0	5615080	2175	0
0	5617484	2176	0
0	5619942	2177	0
0	5622550	2178	0
0	5624957	2179	0
0	5627326	2180	0
0	5630075	2181	3
0	5632296	2182	4
0	5634952	2183	4
0	5637907	2184	0
0	5640506	2185	4
0	5643175	2186	4
0	5645653	2187	0
0	5648272	2188	0
0	5651058	2189	2
0	5653962	2190	2
0	5656607	2191	0
0	5659333	2192	0
0	5661943	2193	0
0	5664495	2194	1
0	5666917	2195	7
0	5669386	2196	0
0	5671624	2197	1
0	5674197	2198	0
0	5676740	2199	6
0	5679213	2200	0
0	5681737	2201	0
0	5684128	2202	3
0	5686709	2203	2
0	5688988	2204	1
0	5691470	2205	0
0	5694067	2206	0
0	5696637	2207	0
0	5699266	2208	2
0	5701939	2209	0
0	5704588	2210	6
0	5707240	2211	3
0	5709975	2212	0
0	5712598	2213	0
0	5715093	2214	0
0	5717495	2215	1
0	5720082	2216	0
0	5722649	2217	1
0	5724984	2218	1
0	5727405	2219	0
0	5729821	2220	0
0	5732401	2221	0
0	5734891	2222	3
0	5737132	2223	0
0	5739791	2224	0
0	5742476	2225	0
0	5745175	2226	0
0	5747757	2227	0
0	5750354	2228	5
0	5752999	2229	0
0	5755459	2230	5
0	5758271	2231	7
0	5761258	2232	16
0	5764004	2233	1
0	5766400	2234	0
0	5768855	2235	0
0	5771338	2236	0
0	5773949	2237	4
0	5776400	2238	2
0	5778852	2239	5
0	5781752	2240	0
0	5784293	2241	0
0	5786852	2242	1
0	5789485	2243	0
0	5792186	2244	3
0	5794669	2245	3
0	5797263	2246	1
0	5799848	2247	0
0	5802328	2248	7
0	5805028	2249	1
0	5807627	2250	0
0	5810366	2251	7
0	5812878	2252	1
0	5815603	2253	13
0	5817919	2254	0
0	5820480	2255	0
0	5823041	2256	1
0	5825567	2257	0
0	5828006	2258	1
0	5830567	2259	0
0	5833232	2260	1
0	5835810	2261	9
0	5838328	2262	0
0	5840899	2263	2
0	5843752	2264	2
0	5846277	2265	1
0	5848850	2266	0
0	5851445	2267	1
0	5854148	2268	0
0	5856788	2269	0
0	5859434	2270	1
0	5862190	2271	3
0	5864811	2272	4
0	5867289	2273	1
0	5870027	2274	0
0	5872537	2275	0
0	5875298	2276	2
0	5877986	2277	1
0	5880808	2278	1
0	5883515	2279	4
0	5886061	2280	0
0	5888953	2281	0
0	5891465	2282	4
0	5894380	2283	11
0	5897025	2284	1
0	5899569	2285	0
0	5902135	2286	1
0	5904663	2287	0
0	5907338	2288	0
0	5909696	2289	0
0	5912334	2290	1
0	5914786	2291	0
0	5917372	2292	1
0	5919915	2293	2
0	5922514	2294	3
0	5924992	2295	2
0	5927514	2296	0
0	5929927	2297	5
0	5932392	2298	3
0	5934774	2299	0
0	5937268	2300	0
0	5939579	2301	0
0	5942113	2302	0
0	5944395	2303	0
0	5947137	2304	0
0	5949863	2305	0
0	5952558	2306	0
0	5955165	2307	0
0	5957851	2308	0
0	5960565	2309	3
0	5962713	2310	0
0	5965206	2311	0
0	5967669	2312	2
0	5970183	2313	3
0	5972467	2314	0
0	5975190	2315	0
0	5977989	2316	0
0	5980428	2317	0
0	5982880	2318	0
0	5985514	2319	0
0	5988083	2320	0
0	5990586	2321	2
0	5993285	2322	1
0	5995978	2323	13
0	5998481	2324	0
0	6000988	2325	0
0	6003404	2326	0
0	6006087	2327	0
0	6008762	2328	0
0	6011186	2329	1
0	6013869	2330	7
0	6016616	2331	0
0	6019374	2332	5
0	6021851	2333	0
0	6024544	2334	0
0	6027164	2335	0
0	6029709	2336	0
0	6032320	2337	3
0	6034993	2338	0
0	6037553	2339	4
0	6040152	2340	0
0	6042646	2341	0
0	6045362	2342	0
0	6048024	2343	0
0	6050572	2344	2
0	6053100	2345	0
0	6055600	2346	0
0	6058356	2347	0
0	6061094	2348	3
0	6063450	2349	0
0	6066044	2350	5
0	6068653	2351	5
0	6071176	2352	0
0	6074021	2353	3
0	6076813	2354	1
0	6079706	2355	0
0	6082092	2356	0
0	6084597	2357	0
0	6087050	2358	0
0	6089707	2359	4
0	6092563	2360	5
0	6095251	2361	0
0	6097638	2362	2
0	6100229	2363	0
0	6102618	2364	1
0	6105284	2365	3
0	6107779	2366	9
0	6110223	2367	1
0	6112605	2368	0
0	6115374	2369	0
0	6117717	2370	0
0	6120142	2371	0
0	6122540	2372	0
0	6125238	2373	1
0	6127994	2374	1
0	6130515	2375	0
0	6132993	2376	3
0	6135536	2377	4
0	6138280	2378	9
0	6141006	2379	1
0	6143448	2380	1
0	6145792	2381	1
0	6148254	2382	5
0	6150526	2383	1
0	6153083	2384	2
0	6155783	2385	1
0	6158264	2386	1
0	6161045	2387	0
0	6163511	2388	4
0	6165817	2389	9
0	6168428	2390	0
0	6171003	2391	2
0	6173750	2392	0
0	6176327	2393	0
0	6179133	2394	0
0	6181494	2395	0
0	6183777	2396	0
0	6186444	2397	0
0	6188945	2398	0
0	6191560	2399	2
0	6194350	2400	1
0	6197054	2401	0
0	6199667	2402	14
0	6202263	2403	1
0	6205059	2404	2
0	6207926	2405	0
0	6210629	2406	0
0	6213327	2407	0
0	6215966	2408	5
0	6218635	2409	2
0	6221190	2410	0
0	6223960	2411	0
0	6226463	2412	1
0	6228962	2413	8
0	6231427	2414	8
0	6233973	2415	0
0	6236527	2416	5
0	6239198	2417	0
0	6241743	2418	0
0	6244203	2419	0
0	6246694	2420	2
0	6249283	2421	1
0	6251915	2422	0
0	6254490	2423	0
0	6256982	2424	2
0	6259511	2425	0
0	6262169	2426	0
0	6264941	2427	2
0	6267744	2428	5
0	6270484	2429	3
0	6273101	2430	3
0	6275574	2431	4
0	6278324	2432	0
0	6280787	2433	0
0	6283280	2434	0
0	6285577	2435	0
0	6288166	2436	0
0	6290622	2437	1
0	6293079	2438	0
0	6295593	2439	0
0	6297934	2440	0
0	6300602	2441	2
0	6303286	2442	2
0	6305942	2443	0
0	6308470	2444	0
0	6311031	2445	0
0	6313477	2446	0
0	6316106	2447	9
0	6318633	2448	0
0	6321231	2449	0
0	6324042	2450	3
0	6326691	2451	0
0	6329671	2452	0
0	6331992	2453	2
0	6334857	2454	0
0	6337457	2455	3
0	6340209	2456	0
0	6342800	2457	4
0	6345314	2458	0
0	6348026	2459	0
0	6350614	2460	0
0	6353358	2461	0
0	6356131	2462	0
0	6358472	2463	0
0	6361407	2464	8
0	6363964	2465	2
0	6366762	2466	0
0	6369368	2467	0
0	6371892	2468	0
0	6374558	2469	6
0	6377370	2470	0
0	6379843	2471	0
0	6382369	2472	0
0	6384940	2473	0
0	6387552	2474	2
0	6390016	2475	0
0	6392509	2476	0
0	6395256	2477	3
0	6398059	2478	0
0	6400621	2479	1
0	6403084	2480	11
0	6405506	2481	0
0	6408358	2482	0
0	6410999	2483	3
0	6413392	2484	0
0	6416014	2485	1
0	6418633	2486	1
0	6421264	2487	0
0	6424028	2488	1
0	6426386	2489	0
0	6429228	2490	3
0	6431799	2491	0
0	6434403	2492	0
0	6437012	2493	2
0	6439545	2494	0
0	6442106	2495	1
0	6444578	2496	1
0	6447249	2497	0
0	6449740	2498	2
0	6452284	2499	3
0	6454802	2500	1
0	6457379	2501	2
0	6459898	2502	0
0	6462507	2503	3
0	6465031	2504	0
0	6467470	2505	1
0	6470073	2506	0
0	6472685	2507	0
0	6475315	2508	1
0	6477873	2509	9
0	6480489	2510	1
0	6482978	2511	0
0	6485552	2512	0
0	6488238	2513	14
0	6490845	2514	0
0	6493434	2515	0
0	6495801	2516	1
0	6498184	2517	0
0	6500786	2518	0
0	6503391	2519	2
0	6505874	2520	0
0	6508419	2521	4
0	6510883	2522	6
0	6513557	2523	1
0	6516113	2524	3
0	6518855	2525	0
0	6521411	2526	0
0	6523824	2527	0
0	6526239	2528	2
0	6529005	2529	1
0	6531611	2530	0
0	6534170	2531	3
0	6536765	2532	0
0	6539389	2533	1
0	6541930	2534	1
0	6544778	2535	0
0	6547103	2536	4
0	6549814	2537	0
0	6552370	2538	3
0	6554959	2539	9
0	6557323	2540	0
0	6559989	2541	0
0	6562432	2542	7
0	6565131	2543	1
0	6567797	2544	0
0	6570424	2545	0
0	6573048	2546	1
0	6575570	2547	2
0	6578307	2548	4
0	6581229	2549	2
0	6583938	2550	0
0	6586520	2551	1
0	6589296	2552	2
0	6591661	2553	1
0	6594598	2554	0
0	6596968	2555	0
0	6599658	2556	6
0	6602236	2557	8
0	6605012	2558	1
0	6607644	2559	0
0	6610288	2560	1
0	6612793	2561	1
0	6615466	2562	2
0	6618172	2563	0
0	6620638	2564	0
0	6623200	2565	3
0	6625628	2566	1
0	6628096	2567	1
0	6630616	2568	0
0	6633296	2569	0
0	6635880	2570	3
0	6638447	2571	2
0	6640947	2572	3
0	6643746	2573	5
0	6646395	2574	1
0	6649044	2575	0
0	6651629	2576	0
0	6654091	2577	0
0	6656707	2578	5
0	6659098	2579	1
0	6661534	2580	0
0	6664166	2581	1
0	6666663	2582	0
0	6669430	2583	0
0	6672036	2584	0
0	6674426	2585	0
0	6676995	2586	1
0	6679541	2587	0
0	6681858	2588	0
0	6684284	2589	0
0	6686921	2590	0
0	6689582	2591	0
0	6691860	2592	2
0	6694352	2593	2
0	6696826	2594	0
0	6699449	2595	5
0	6702259	2596	3
0	6704873	2597	1
0	6707533	2598	7
0	6709979	2599	1
0	6712790	2600	2
0	6715524	2601	0
0	6718021	2602	3
0	6720383	2603	0
0	6722641	2604	1
0	6724902	2605	0
0	6727378	2606	0
0	6729804	2607	1
0	6732368	2608	0
0	6734995	2609	1
0	6737631	2610	0
0	6740127	2611	0
0	6742759	2612	0
0	6745198	2613	6
0	6747840	2614	0
0	6750377	2615	1
0	6752914	2616	0
0	6755614	2617	0
0	6758278	2618	2
0	6761145	2619	0
0	6763823	2620	1
0	6766153	2621	0
0	6768978	2622	1
0	6771534	2623	1
0	6774171	2624	0
0	6776737	2625	0
0	6779077	2626	1
0	6781555	2627	0
0	6784097	2628	3
0	6786813	2629	2
0	6789285	2630	0
0	6791907	2631	12
0	6794480	2632	0
0	6796992	2633	0
0	6799583	2634	2
0	6802069	2635	0
0	6804643	2636	0
0	6806942	2637	1
0	6809473	2638	0
0	6812161	2639	1
0	6814755	2640	2
0	6817659	2641	6
0	6820470	2642	0
0	6822984	2643	0
0	6825693	2644	2
0	6828271	2645	0
0	6830966	2646	0
0	6833490	2647	3
0	6836045	2648	9
0	6838568	2649	0
0	6841335	2650	2
0	6843880	2651	1
0	6846460	2652	0
0	6849242	2653	2
0	6851898	2654	4
0	6854589	2655	0
0	6857202	2656	1
0	6859966	2657	0
0	6862640	2658	0
0	6865496	2659	0
0	6868067	2660	0
0	6870690	2661	0
0	6873492	2662	0
0	6876038	2663	0
0	6878540	2664	0
0	6881088	2665	0
0	6883706	2666	1
0	6886163	2667	9
0	6888912	2668	5
0	6891437	2669	0
0	6894196	2670	8
0	6896605	2671	0
0	6899061	2672	2
0	6901624	2673	0
0	6904346	2674	0
0	6906915	2675	3
0	6909472	2676	4
0	6912197	2677	0
0	6914716	2678	3
0	6917267	2679	1
0	6919677	2680	0
0	6922022	2681	1
0	6924306	2682	2
0	6926817	2683	0
0	6929371	2684	2
0	6932003	2685	0
0	6934631	2686	2
0	6937008	2687	6
0	6939606	2688	0
0	6942277	2689	0
0	6944878	2690	1
0	6947578	2691	2
0	6950126	2692	0
0	6952532	2693	2
0	6955220	2694	3
0	6957810	2695	0
0	6960313	2696	0
0	6962857	2697	0
0	6965338	2698	0
0	6967661	2699	0
0	6970287	2700	2
0	6972861	2701	0
0	6975480	2702	2
0	6977783	2703	9
0	6980233	2704	0
0	6982437	2705	0
0	6985094	2706	1
0	6987382	2707	4
0	6989953	2708	0
0	6992336	2709	2
0	6994896	2710	2
0	6997667	2711	0
0	7000172	2712	0
0	7002829	2713	0
0	7005280	2714	0
0	7007823	2715	0
0	7010640	2716	1
0	7013165	2717	3
0	7015826	2718	0
0	7018434	2719	0
0	7020805	2720	0
0	7023186	2721	0
0	7025732	2722	0
0	7027960	2723	1
0	7030506	2724	0
0	7033164	2725	0
0	7035932	2726	4
0	7038623	2727	0
0	7041107	2728	0
0	7043919	2729	0
0	7046555	2730	1
0	7049274	2731	0
0	7052028	2732	0
0	7054514	2733	0
0	7057113	2734	5
0	7059532	2735	5
0	7062181	2736	1
0	7064698	2737	1
0	7067310	2738	2
0	7069904	2739	0
0	7072609	2740	1
0	7075219	2741	1
0	7077936	2742	0
0	7080455	2743	0
0	7082980	2744	2
0	7085540	2745	1
0	7088149	2746	0
0	7090524	2747	0
0	7092998	2748	0
0	7095672	2749	8
0	7098402	2750	2
0	7101060	2751	6
0	7103469	2752	0
0	7105816	2753	1
0	7108212	2754	0
0	7110782	2755	5
0	7113245	2756	6
0	7115714	2757	0
0	7118393	2758	0
0	7121104	2759	2
0	7123516	2760	2
0	7126199	2761	0
0	7129133	2762	0
0	7131567	2763	1
0	7134302	2764	0
0	7136804	2765	4
0	7139526	2766	2
0	7142099	2767	9
0	7144937	2768	8
0	7147231	2769	3
0	7150132	2770	0
0	7152982	2771	2
0	7155757	2772	0
0	7158370	2773	0
0	7161164	2774	2
0	7163790	2775	0
0	7166577	2776	2
0	7169007	2777	6
0	7171575	2778	1
0	7174183	2779	5
0	7176769	2780	4
0	7179396	2781	2
0	7181910	2782	2
0	7184573	2783	2
0	7186995	2784	4
0	7189502	2785	0
0	7192101	2786	5
0	7194617	2787	1
0	7197258	2788	0
0	7199861	2789	9
0	7202632	2790	3
0	7205433	2791	0
0	7207592	2792	0
0	7210326	2793	1
0	7212846	2794	3
0	7215492	2795	0
0	7217947	2796	0
0	7220635	2797	0
0	7223231	2798	0
0	7225965	2799	0
0	7228423	2800	0
0	7231264	2801	0
0	7233882	2802	0
0	7236109	2803	7
0	7238410	2804	5
0	7241061	2805	0
0	7243884	2806	1
0	7246557	2807	5
0	7249255	2808	0
0	7251796	2809	7
0	7254474	2810	0
0	7257017	2811	3
0	7259600	2812	2
0	7262166	2813	0
0	7264583	2814	0
0	7267122	2815	0
0	7269775	2816	1
0	7272122	2817	5
0	7274872	2818	0
0	7277409	2819	0
0	7280115	2820	0
0	7282824	2821	0
0	7285413	2822	0
0	7287926	2823	0
0	7290450	2824	0
0	7293021	2825	0
0	7295409	2826	0
0	7298015	2827	2
0	7300618	2828	0
0	7303265	2829	0
0	7305997	2830	3
0	7308621	2831	6
0	7311038	2832	5
0	7313621	2833	3
0	7316131	2834	0
0	7318585	2835	2
0	7321062	2836	0
0	7323716	2837	3
0	7326300	2838	0
0	7328913	2839	12
0	7331666	2840	3
0	7334231	2841	0
0	7336703	2842	0
0	7338870	2843	1
0	7341126	2844	0
0	7343722	2845	0
0	7346440	2846	0
0	7349132	2847	11
0	7352083	2848	1
0	7354718	2849	1
0	7357280	2850	1
0	7359798	2851	0
0	7362330	2852	5
0	7364756	2853	0
0	7367471	2854	1
0	7370006	2855	0
0	7372407	2856	0
0	7374904	2857	0
0	7377376	2858	3
0	7379806	2859	8
0	7382588	2860	0
0	7385346	2861	1
0	7387908	2862	0
0	7390321	2863	2
0	7392969	2864	0
0	7395529	2865	8
0	7398293	2866	0
0	7400841	2867	0
0	7403328	2868	0
0	7405796	2869	1
0	7408453	2870	3
0	7411037	2871	6
0	7413580	2872	0
0	7416209	2873	0
0	7418751	2874	0
0	7421491	2875	0
0	7424084	2876	0
0	7426830	2877	0
0	7429347	2878	0
0	7431960	2879	0
0	7434243	2880	10
0	7436884	2881	0
0	7439356	2882	0
0	7441927	2883	0
0	7444445	2884	1
0	7447095	2885	0
0	7449723	2886	2
0	7452409	2887	0
0	7454907	2888	0
0	7457363	2889	3
0	7459841	2890	7
0	7462292	2891	0
0	7464814	2892	0
0	7467379	2893	0
0	7469901	2894	0
0	7472475	2895	0
0	7475239	2896	4
0	7477663	2897	0
0	7480351	2898	0
0	7483048	2899	2
0	7485619	2900	5
0	7488147	2901	0
0	7491079	2902	0
0	7493710	2903	9
0	7496423	2904	9
0	7498947	2905	0
0	7501599	2906	1
0	7504094	2907	1
0	7506828	2908	2
0	7509447	2909	4
0	7512081	2910	0
0	7514930	2911	0
0	7517627	2912	0
0	7520108	2913	0
0	7522697	2914	5
0	7525366	2915	0
0	7527928	2916	5
0	7530793	2917	1
0	7533412	2918	4
0	7536134	2919	0
0	7538466	2920	1
0	7541001	2921	0
0	7543726	2922	4
0	7546500	2923	2
0	7549246	2924	5
0	7551915	2925	6
0	7554425	2926	0
0	7556932	2927	0
0	7559495	2928	5
0	7562188	2929	3
0	7564857	2930	3
0	7567540	2931	3
0	7570328	2932	0
0	7573075	2933	3
0	7575642	2934	6
0	7578292	2935	0
0	7580859	2936	0
0	7583327	2937	11
0	7585805	2938	11
0	7588513	2939	0
0	7591152	2940	2
0	7593932	2941	4
0	7596500	2942	0
0	7599098	2943	1
0	7601634	2944	0
0	7604290	2945	5
0	7606885	2946	8
0	7609519	2947	1
0	7612087	2948	1
0	7614642	2949	0
0	7617093	2950	1
0	7619831	2951	3
0	7622659	2952	1
0	7624993	2953	0
0	7627393	2954	5
0	7630029	2955	0
0	7632621	2956	0
0	7635193	2957	1
0	7637645	2958	0
0	7640266	2959	2
0	7642878	2960	0
0	7645323	2961	0
0	7647912	2962	0
0	7650314	2963	0
0	7653066	2964	13
0	7655795	2965	1
0	7658292	2966	1
0	7660809	2967	0
0	7663272	2968	0
0	7665379	2969	0
0	7667912	2970	2
0	7670759	2971	1
0	7673254	2972	1
0	7675979	2973	2
0	7678452	2974	0
0	7680953	2975	0
0	7683364	2976	1
0	7685953	2977	0
0	7688674	2978	3
0	7691317	2979	1
0	7693845	2980	4
0	7696425	2981	5
0	7698848	2982	1
0	7701507	2983	0
0	7704182	2984	2
0	7706952	2985	2
0	7709415	2986	0
0	7711843	2987	3
0	7714500	2988	0
0	7717005	2989	2
0	7719661	2990	0
0	7722239	2991	1
0	7724880	2992	0
0	7727623	2993	6
0	7730530	2994	0
0	7733136	2995	6
0	7735653	2996	0
0	7738457	2997	0
0	7741154	2998	0
0	7743682	2999	0
0	7746323	3000	3
0	7749048	3001	7
0	7751612	3002	3
0	7754154	3003	0
0	7756744	3004	3
0	7759282	3005	0
0	7761826	3006	0
0	7764293	3007	2
0	7766941	3008	0
0	7769534	3009	2
0	7771992	3010	4
0	7774685	3011	0
0	7776982	3012	0
0	7779471	3013	0
0	7781863	3014	0
0	7784216	3015	0
0	7786737	3016	1
0	7789417	3017	0
0	7792124	3018	0
0	7794696	3019	9
0	7797412	3020	0
0	7800087	3021	1
0	7802766	3022	2
0	7805528	3023	1
0	7807955	3024	2
0	7810625	3025	0
0	7813432	3026	0
0	7815693	3027	0
0	7818382	3028	2
0	7820967	3029	0
0	7823649	3030	0
0	7826324	3031	0
0	7828774	3032	0
0	7831346	3033	4
0	7833969	3034	2
0	7836592	3035	6
0	7839132	3036	1
0	7841771	3037	2
0	7844285	3038	0
0	7846892	3039	0
0	7849616	3040	1
0	7852118	3041	10
0	7854905	3042	0
0	7857212	3043	0
0	7859840	3044	2
0	7862494	3045	2
0	7864901	3046	0
0	7867627	3047	2
0	7870302	3048	3
0	7872696	3049	0
0	7875576	3050	1
0	7878089	3051	0
0	7880570	3052	1
0	7883055	3053	0
0	7885475	3054	0
0	7888008	3055	0
0	7890859	3056	0
0	7893467	3057	4
0	7895892	3058	0
0	7898229	3059	1
0	7900835	3060	9
0	7903429	3061	0
0	7905963	3062	7
0	7908579	3063	1
0	7911272	3064	0
0	7913869	3065	0
0	7916543	3066	0
0	7918998	3067	0
0	7921517	3068	4
0	7924170	3069	0
0	7926760	3070	0
0	7929435	3071	0
0	7932155	3072	0
0	7934934	3073	0
0	7937576	3074	1
0	7940077	3075	1
0	7942689	3076	0
0	7945195	3077	1
0	7948098	3078	2
0	7950599	3079	1
0	7953124	3080	0
0	7955696	3081	0
0	7958234	3082	0
0	7960874	3083	0
0	7963449	3084	5
0	7966088	3085	1
0	7968693	3086	0
0	7971223	3087	0
0	7973986	3088	0
0	7976464	3089	1
0	7978999	3090	2
0	7981490	3091	1
0	7983964	3092	0
0	7986412	3093	1
0	7989011	3094	1
0	7991686	3095	0
0	7994201	3096	0
0	7996825	3097	0
0	7999343	3098	0
0	8001878	3099	2
0	8004335	3100	2
0	8007028	3101	0
0	8009798	3102	2
0	8012366	3103	0
0	8014983	3104	2
0	8017736	3105	0
0	8020200	3106	0
0	8022695	3107	0
0	8025293	3108	0
0	8027875	3109	4
0	8030381	3110	8
0	8032636	3111	0
0	8035137	3112	7
0	8037692	3113	1
0	8040107	3114	0
0	8042642	3115	0
0	8045313	3116	0
0	8047779	3117	3
0	8050261	3118	1
0	8052738	3119	0
0	8055329	3120	3
0	8057977	3121	2
0	8060488	3122	0
0	8063221	3123	0
0	8065617	3124	0
0	8068127	3125	0
0	8070535	3126	3
0	8072990	3127	0
0	8075439	3128	0
0	8077860	3129	4
0	8080365	3130	1
0	8083200	3131	2
0	8086087	3132	2
0	8088683	3133	0
0	8091317	3134	0
0	8093822	3135	0
0	8096150	3136	0
0	8098826	3137	7
0	8101393	3138	2
0	8104036	3139	0
0	8106281	3140	0
0	8108792	3141	0
0	8111447	3142	1
0	8114231	3143	0
0	8116880	3144	1
0	8119464	3145	1
0	8122213	3146	1
0	8124692	3147	1
0	8127331	3148	0
0	8130079	3149	1
0	8132584	3150	0
0	8135151	3151	1
0	8137756	3152	0
0	8140426	3153	0
0	8142948	3154	0
0	8145636	3155	0
0	8148322	3156	6
0	8150691	3157	1
0	8153255	3158	2
0	8155947	3159	0
0	8158583	3160	5
0	8161112	3161	1
0	8163812	3162	0
0	8166454	3163	0
0	8169065	3164	0
0	8171737	3165	1
0	8174275	3166	0
0	8176630	3167	0
0	8179265	3168	0
0	8181806	3169	0
0	8184385	3170	13
0	8186936	3171	0
0	8189496	3172	0
0	8192029	3173	0
0	8194548	3174	1
0	8197214	3175	2
0	8199479	3176	0
0	8202041	3177	7
0	8204411	3178	0
0	8206669	3179	0
0	8209110	3180	0
0	8211431	3181	0
0	8214137	3182	0
0	8216810	3183	5
0	8219490	3184	2
0	8222060	3185	3
0	8224680	3186	0
0	8227327	3187	1
0	8229862	3188	3
0	8232393	3189	0
0	8235119	3190	0
0	8237787	3191	2
0	8240339	3192	4
0	8243088	3193	4
0	8245818	3194	5
0	8248497	3195	1
0	8251046	3196	5
0	8253383	3197	0
0	8256043	3198	1
0	8258756	3199	0
0	8261407	3200	0
0	8264061	3201	0
0	8266421	3202	1
0	8268910	3203	0
0	8271468	3204	1
0	8274097	3205	0
0	8276630	3206	0
0	8279223	3207	0
0	8281935	3208	0
0	8284653	3209	1
0	8287237	3210	1
0	8289607	3211	0
0	8291831	3212	0
0	8294665	3213	7
0	8296909	3214	0
0	8299417	3215	1
0	8301987	3216	1
0	8304414	3217	0
0	8307033	3218	1
0	8309571	3219	0
0	8312250	3220	0
0	8314693	3221	0
0	8317290	3222	0
0	8319800	3223	0
0	8322339	3224	0
0	8325041	3225	5
0	8327796	3226	6
0	8330376	3227	0
0	8332868	3228	0
0	8335473	3229	0
0	8337862	3230	0
0	8340291	3231	0
0	8342798	3232	3
0	8345412	3233	0
0	8348136	3234	2
0	8350865	3235	0
0	8353501	3236	0
0	8356094	3237	0
0	8358376	3238	2
0	8360904	3239	0
0	8363677	3240	1
0	8366089	3241	2
0	8368610	3242	0
0	8371096	3243	0
0	8373624	3244	0
0	8376055	3245	0
0	8378737	3246	0
0	8381553	3247	0
0	8384215	3248	0
0	8386647	3249	1
0	8389292	3250	0
0	8391906	3251	0
0	8394418	3252	0
0	8397033	3253	1
0	8399421	3254	2
0	8401921	3255	0
0	8404363	3256	5
0	8407023	3257	4
0	8409676	3258	0
0	8412281	3259	0
0	8414777	3260	2
0	8417409	3261	1
0	8419974	3262	0
0	8422435	3263	0
0	8425016	3264	0
0	8427672	3265	8
0	8430450	3266	0
0	8433135	3267	14
0	8435728	3268	0
0	8438309	3269	3
0	8440761	3270	0
0	8443427	3271	7
0	8446367	3272	3
0	8449133	3273	0
0	8451832	3274	4
0	8454465	3275	0
0	8457017	3276	0
0	8459702	3277	1
0	8462346	3278	2
0	8464864	3279	2
0	8467310	3280	0
0	8469660	3281	2
0	8471900	3282	6
0	8474591	3283	2
0	8477182	3284	0
0	8479638	3285	6
0	8482265	3286	0
0	8484708	3287	0
0	8487325	3288	0
0	8490147	3289	0
0	8493022	3290	4
0	8495697	3291	2
0	8498596	3292	3
0	8501148	3293	5
0	8503608	3294	0
0	8506171	3295	2
0	8508876	3296	0
0	8511175	3297	0
0	8513929	3298	1
0	8516362	3299	5
0	8519094	3300	5
0	8521901	3301	13
0	8524480	3302	0
0	8527170	3303	1
0	8529527	3304	3
0	8532326	3305	1
0	8534875	3306	0
0	8537628	3307	0
0	8540190	3308	0
0	8542684	3309	1
0	8545464	3310	1
0	8547924	3311	2
0	8550604	3312	1
0	8553242	3313	1
0	8555674	3314	0
0	8558056	3315	3
0	8560535	3316	1
0	8563218	3317	1
0	8565817	3318	0
0	8568423	3319	0
0	8571020	3320	2
0	8573543	3321	1
0	8575870	3322	6
0	8578617	3323	0
0	8581372	3324	4
0	8584078	3325	1
0	8586666	3326	6
0	8589171	3327	0
0	8591870	3328	1
0	8594525	3329	2
0	8597152	3330	5
0	8599355	3331	3
0	8602049	3332	1
0	8604534	3333	0
0	8607108	3334	0
0	8609499	3335	0
0	8612071	3336	0
0	8614633	3337	1
0	8617094	3338	4
0	8619848	3339	1
0	8622436	3340	0
0	8624976	3341	0
0	8627712	3342	0
0	8630333	3343	8
0	8632984	3344	4
0	8635674	3345	7
0	8638215	3346	0
0	8640954	3347	0
0	8643509	3348	0
0	8646002	3349	0
0	8648419	3350	1
0	8651040	3351	0
0	8653613	3352	0
0	8655680	3353	0
0	8658092	3354	4
0	8660801	3355	0
0	8663388	3356	5
0	8665975	3357	4
0	8668804	3358	0
0	8671417	3359	4
0	8673666	3360	0
0	8676392	3361	1
0	8678953	3362	3
0	8681447	3363	0
0	8684139	3364	0
0	8686836	3365	0
0	8689334	3366	1
0	8691613	3367	3
0	8694212	3368	0
0	8696869	3369	4
0	8699571	3370	8
0	8702149	3371	0
0	8704855	3372	10
0	8707461	3373	0
0	8709902	3374	1
0	8712580	3375	9
0	8715141	3376	0
0	8717785	3377	2
0	8720275	3378	1
0	8722813	3379	9
0	8725078	3380	0
0	8727367	3381	1
0	8729807	3382	1
0	8732289	3383	0
0	8734654	3384	0
0	8737154	3385	0
0	8739974	3386	10
0	8742515	3387	0
0	8745302	3388	2
0	8747782	3389	1
0	8750456	3390	0
0	8752991	3391	1
0	8755514	3392	4
0	8758104	3393	3
0	8760450	3394	3
0	8763142	3395	0
0	8765437	3396	2
0	8767905	3397	6
0	8770593	3398	0
0	8773254	3399	0
0	8775873	3400	2
0	8778427	3401	0
0	8780930	3402	1
0	8783343	3403	0
0	8785941	3404	0
0	8788541	3405	0
0	8791294	3406	0
0	8794039	3407	1
0	8796620	3408	0
0	8799269	3409	0
0	8801687	3410	0
0	8804591	3411	10
0	8807029	3412	1
0	8809661	3413	0
0	8812144	3414	2
0	8814761	3415	0
0	8817229	3416	0
0	8820053	3417	1
0	8822622	3418	0
0	8824673	3419	0
0	8827310	3420	1
0	8829877	3421	0
0	8832487	3422	0
0	8835057	3423	2
0	8837861	3424	0
0	8840662	3425	4
0	8843281	3426	0
0	8845903	3427	0
0	8848578	3428	1
0	8851129	3429	2
0	8853574	3430	0
0	8855949	3431	0
0	8858356	3432	0
0	8861116	3433	0
0	8863932	3434	5
0	8866612	3435	0
0	8868878	3436	3
0	8871372	3437	2
0	8873911	3438	3
0	8876750	3439	1
0	8879307	3440	0
0	8881960	3441	0
0	8884508	3442	3
0	8887021	3443	3
0	8889758	3444	0
0	8892106	3445	0
0	8894811	3446	0
0	8897166	3447	0
0	8899490	3448	0
0	8902287	3449	0
0	8904849	3450	2
0	8907309	3451	0
0	8910074	3452	0
0	8912566	3453	1
0	8915187	3454	0
0	8917635	3455	0
0	8920083	3456	1
0	8922562	3457	3
0	8924905	3458	5
0	8927592	3459	0
0	8930050	3460	1
0	8932509	3461	1
0	8935167	3462	0
0	8937671	3463	0
0	8940253	3464	8
0	8943135	3465	1
0	8945736	3466	5
0	8948327	3467	1
0	8950865	3468	5
0	8953180	3469	0
0	8955614	3470	2
0	8958060	3471	0
0	8960387	3472	0
0	8962770	3473	4
0	8965300	3474	5
0	8968035	3475	0
0	8970562	3476	2
0	8973273	3477	0
0	8975880	3478	0
0	8978308	3479	10
0	8980721	3480	2
0	8983059	3481	2
0	8985661	3482	0
0	8988371	3483	0
0	8990898	3484	0
0	8993154	3485	0
0	8995875	3486	0
0	8998500	3487	0
0	9001075	3488	3
0	9003528	3489	0
0	9006081	3490	1
0	9008691	3491	0
0	9011369	3492	0
0	9013932	3493	3
0	9016443	3494	0
0	9019056	3495	7
0	9021452	3496	0
0	9023861	3497	6
0	9026146	3498	0
0	9028717	3499	0
0	9031130	3500	0
0	9033757	3501	5
0	9036394	3502	0
0	9038802	3503	5
0	9041379	3504	0
0	9043750	3505	0
0	9046063	3506	1
0	9048667	3507	4
0	9051045	3508	7
0	9053666	3509	0
0	9056386	3510	3
0	9058784	3511	0
0	9061233	3512	0
0	9063633	3513	1
0	9066212	3514	1
0	9068882	3515	0
0	9071277	3516	0
0	9073767	3517	0
0	9076376	3518	0
0	9078970	3519	0
0	9081590	3520	9
0	9084453	3521	4
0	9087063	3522	3
0	9089598	3523	6
0	9092045	3524	2
0	9094600	3525	0
0	9097056	3526	1
0	9099819	3527	6
0	9102393	3528	0
0	9105097	3529	4
0	9107658	3530	0
0	9110238	3531	2
0	9113006	3532	0
0	9115521	3533	3
0	9118228	3534	0
0	9120705	3535	0
0	9123239	3536	0
0	9125812	3537	6
0	9128437	3538	0
0	9131071	3539	0
0	9133355	3540	4
0	9136145	3541	4
0	9138756	3542	2
0	9141403	3543	0
0	9144043	3544	0
0	9146637	3545	0
0	9149247	3546	0
0	9152081	3547	5
0	9154703	3548	7
0	9157377	3549	0
0	9159798	3550	15
0	9162554	3551	0
0	9165073	3552	1
0	9167644	3553	0
0	9170156	3554	1
0	9172861	3555	0
0	9175310	3556	0
0	9177840	3557	0
0	9180088	3558	1
0	9182626	3559	2
0	9185308	3560	4
0	9187812	3561	2
0	9190390	3562	0
0	9192931	3563	1
0	9195542	3564	0
0	9198146	3565	0
0	9200667	3566	0
0	9203319	3567	0
0	9206103	3568	0
0	9208724	3569	1
0	9211532	3570	0
0	9214115	3571	1
0	9216790	3572	2
0	9219517	3573	7
0	9221942	3574	0
0	9224566	3575	3
0	9227342	3576	3
0	9229844	3577	4
0	9232499	3578	2
0	9235016	3579	0
0	9237474	3580	2
0	9240001	3581	0
0	9242719	3582	0
0	9245414	3583	0
0	9248084	3584	1
0	9250457	3585	4
0	9252939	3586	1
0	9255822	3587	5
0	9258257	3588	1
0	9261099	3589	3
0	9263585	3590	0
0	9266270	3591	1
0	9268865	3592	0
0	9271473	3593	0
0	9274272	3594	10
0	9276697	3595	1
0	9279478	3596	10
0	9281898	3597	0
0	9284266	3598	0
0	9287139	3599	0
0	9289703	3600	0
0	9292181	3601	0
0	9294825	3602	3
0	9297296	3603	0
0	9299879	3604	6
0	9302307	3605	1
0	9305026	3606	0
0	9307574	3607	1
0	9310185	3608	1
0	9312651	3609	0
0	9315291	3610	0
0	9317747	3611	0
0	9320161	3612	0
0	9322585	3613	0
0	9325115	3614	0
0	9327905	3615	1
0	9330142	3616	5
0	9332822	3617	4
0	9335762	3618	1
0	9338341	3619	6
0	9340985	3620	0
0	9343559	3621	0
0	9346351	3622	0
0	9348944	3623	8
0	9351363	3624	0
0	9354065	3625	0
0	9356696	3626	0
0	9359287	3627	12
0	9361877	3628	12
0	9364595	3629	0
0	9367283	3630	7
0	9369940	3631	0
0	9372558	3632	9
0	9375214	3633	0
0	9377798	3634	7
0	9380321	3635	0
0	9382967	3636	1
0	9385601	3637	2
0	9388245	3638	2
0	9390899	3639	3
0	9393519	3640	0
0	9395910	3641	0
0	9398577	3642	9
0	9400671	3643	4
0	9403317	3644	0
0	9405565	3645	1
0	9407813	3646	0
0	9410383	3647	1
0	9412806	3648	0
0	9415706	3649	1
0	9418246	3650	0
0	9420836	3651	0
0	9423143	3652	0
0	9425789	3653	0
0	9428242	3654	8
0	9430813	3655	0
0	9433285	3656	1
0	9435889	3657	0
0	9438796	3658	12
0	9441474	3659	0
0	9444214	3660	0
0	9446865	3661	1
0	9449363	3662	1
0	9451846	3663	0
0	9454481	3664	3
0	9457096	3665	1
0	9459557	3666	0
0	9461944	3667	0
0	9464278	3668	0
0	9466683	3669	1
0	9469421	3670	2
0	9472014	3671	0
0	9474351	3672	1
0	9476953	3673	0
0	9479726	3674	3
0	9482360	3675	0
0	9484977	3676	0
0	9487634	3677	1
0	9490024	3678	0
0	9492292	3679	0
0	9494684	3680	0
0	9497126	3681	4
0	9499911	3682	1
0	9502323	3683	0
0	9504947	3684	0
0	9507486	3685	1
0	9510271	3686	4
0	9512866	3687	5
0	9515489	3688	2
0	9518181	3689	7
0	9520695	3690	0
0	9523347	3691	0
0	9525902	3692	5
0	9528480	3693	0
0	9531067	3694	1
0	9533671	3695	0
0	9536362	3696	2
0	9539222	3697	1
0	9541736	3698	0
0	9544531	3699	2
0	9547023	3700	0
0	9549639	3701	1
0	9552271	3702	1
0	9554761	3703	0
0	9557438	3704	1
0	9560288	3705	3
0	9562904	3706	0
0	9565643	3707	10
0	9567951	3708	0
0	9570740	3709	2
0	9573363	3710	2
0	9575894	3711	11
0	9578624	3712	0
0	9581360	3713	9
0	9584088	3714	0
0	9586781	3715	5
0	9589312	3716	0
0	9591979	3717	10
0	9594400	3718	3
0	9596977	3719	0
0	9599629	3720	0
0	9602305	3721	3
0	9605055	3722	2
0	9607547	3723	0
0	9610185	3724	1
0	9612654	3725	6
0	9615069	3726	0
0	9617576	3727	4
0	9620090	3728	0
0	9622693	3729	7
0	9625443	3730	4
0	9627897	3731	0
0	9630630	3732	1
0	9633284	3733	2
0	9635987	3734	0
0	9638697	3735	2
0	9641427	3736	3
0	9644120	3737	2
0	9646614	3738	0
0	9649279	3739	0
0	9652031	3740	2
0	9654239	3741	0
0	9656924	3742	4
0	9659787	3743	5
0	9662539	3744	2
0	9665071	3745	1
0	9667618	3746	0
0	9670242	3747	0
0	9672564	3748	2
0	9675092	3749	1
0	9677689	3750	0
0	9680379	3751	0
0	9682931	3752	5
0	9685444	3753	0
0	9688063	3754	0
0	9690401	3755	0
0	9692916	3756	3
0	9695561	3757	5
0	9698327	3758	2
0	9700880	3759	5
0	9703738	3760	2
0	9706339	3761	0
0	9709137	3762	0
0	9711679	3763	0
0	9714232	3764	6
0	9716617	3765	0
0	9719035	3766	0
0	9721303	3767	0
0	9723870	3768	0
0	9726545	3769	0
0	9729211	3770	4
0	9731626	3771	0
0	9734212	3772	0
0	9736628	3773	0
0	9739021	3774	2
0	9741482	3775	1
0	9743864	3776	0
0	9746412	3777	10
0	9748712	3778	3
0	9751124	3779	1
0	9753941	3780	6
0	9756414	3781	2
0	9758757	3782	1
0	9761357	3783	2
0	9763726	3784	0
0	9766391	3785	0
0	9769195	3786	0
0	9772021	3787	0
0	9774477	3788	0
0	9776979	3789	1
0	9779282	3790	2
0	9781833	3791	0
0	9784481	3792	1
0	9787341	3793	6
0	9790056	3794	0
0	9792666	3795	6
0	9795443	3796	1
0	9798018	3797	0
0	9800509	3798	9
0	9803195	3799	0
0	9805887	3800	1
0	9808373	3801	0
0	9810788	3802	0
0	9813157	3803	0
0	9815785	3804	0
0	9818327	3805	5
0	9821021	3806	0
0	9823375	3807	0
0	9825893	3808	1
0	9828652	3809	5
0	9831346	3810	0
0	9834108	3811	0
0	9836956	3812	3
0	9839740	3813	2
0	9842098	3814	0
0	9844830	3815	0
0	9847510	3816	0
0	9850091	3817	2
0	9852825	3818	0
0	9855340	3819	2
0	9857987	3820	0
0	9860740	3821	3
0	9863516	3822	0
0	9866177	3823	7
0	9868625	3824	0
0	9871057	3825	0
0	9873745	3826	2
0	9876436	3827	1
0	9879213	3828	2
0	9881818	3829	0
0	9884144	3830	0
0	9886778	3831	0
0	9889294	3832	3
0	9891915	3833	4
0	9894476	3834	0
0	9897122	3835	2
0	9899458	3836	0
0	9902101	3837	0
0	9904815	3838	0
0	9907487	3839	2
0	9910080	3840	2
0	9912430	3841	0
0	9914744	3842	0
0	9917197	3843	3
0	9919767	3844	2
0	9922438	3845	0
0	9924922	3846	0
0	9927589	3847	0
0	9930132	3848	0
0	9932736	3849	0
0	9935035	3850	0
0	9937686	3851	6
0	9940108	3852	0
0	9942782	3853	0
0	9945493	3854	0
0	9948063	3855	0
0	9950919	3856	6
0	9953333	3857	0
0	9955846	3858	0
0	9958665	3859	0
0	9961220	3860	0
0	9963604	3861	4
0	9966366	3862	0
0	9968863	3863	0
0	9971459	3864	1
0	9973954	3865	2
0	9976460	3866	1
0	9979068	3867	1
0	9981736	3868	0
0	9984553	3869	0
0	9987174	3870	0
0	9989877	3871	4
0	9992578	3872	2
0	9995121	3873	3
0	9997552	3874	0
0	9999976	3875	2
0	10002324	3876	1
0	10005045	3877	0
0	10007873	3878	5
0	10010597	3879	3
0	10013510	3880	6
0	10016401	3881	0
0	10019023	3882	10
0	10021646	3883	1
0	10024181	3884	1
0	10026858	3885	1
0	10029333	3886	1
0	10032094	3887	4
0	10034623	3888	0
0	10037180	3889	2
0	10039823	3890	0
0	10042392	3891	0
0	10044967	3892	0
0	10047459	3893	0
0	10049912	3894	0
0	10052463	3895	3
0	10055115	3896	2
0	10057746	3897	6
0	10060146	3898	4
0	10062745	3899	0
0	10065443	3900	0
0	10068025	3901	1
0	10070831	3902	5
0	10073257	3903	0
0	10075774	3904	4
0	10078503	3905	0
0	10081077	3906	0
0	10083586	3907	2
0	10086206	3908	10
0	10088768	3909	0
0	10091338	3910	4
0	10094117	3911	0
0	10096903	3912	0
0	10099716	3913	3
0	10102239	3914	4
0	10104593	3915	2
0	10106943	3916	0
0	10109447	3917	1
0	10112113	3918	2
0	10114639	3919	0
0	10117205	3920	1
0	10119663	3921	2
0	10122291	3922	8
0	10125164	3923	6
0	10127729	3924	1
0	10130431	3925	1
0	10133030	3926	0
0	10135608	3927	0
0	10138141	3928	6
0	10140814	3929	0
0	10143495	3930	0
0	10146188	3931	0
0	10148804	3932	4
0	10151321	3933	0
0	10153884	3934	1
0	10156487	3935	1
0	10159294	3936	0
0	10162162	3937	0
0	10164864	3938	3
0	10167390	3939	0
0	10170009	3940	0
0	10172722	3941	0
0	10175326	3942	2
0	10177744	3943	0
0	10180008	3944	1
0	10182384	3945	0
0	10184625	3946	6
0	10187145	3947	0
0	10189719	3948	3
0	10192337	3949	0
0	10194848	3950	0
0	10197560	3951	4
0	10200149	3952	4
0	10202578	3953	1
0	10205344	3954	7
0	10207863	3955	0
0	10210301	3956	0
0	10212883	3957	0
0	10215550	3958	0
0	10218447	3959	10
0	10220970	3960	0
0	10223713	3961	0
0	10226580	3962	0
0	10229386	3963	0
0	10232092	3964	15
0	10234446	3965	0
0	10237036	3966	2
0	10239856	3967	0
0	10242338	3968	0
0	10244995	3969	0
0	10247491	3970	1
0	10250117	3971	1
0	10252697	3972	0
0	10255379	3973	7
0	10257775	3974	0
0	10260438	3975	5
0	10263038	3976	0
0	10265297	3977	0
0	10267992	3978	4
0	10270297	3979	0
0	10272890	3980	0
0	10275315	3981	0
0	10277894	3982	0
0	10280414	3983	2
0	10282924	3984	3
0	10285672	3985	3
0	10288229	3986	0
0	10290655	3987	3
0	10293242	3988	2
0	10295839	3989	0
0	10298437	3990	0
0	10301098	3991	0
0	10303811	3992	0
0	10306021	3993	0
0	10308402	3994	0
0	10310905	3995	2
0	10313245	3996	1
0	10315681	3997	3
0	10318327	3998	1
0	10320840	3999	0
0	10323618	4000	16
1	2908	1	57
1	5627	2	50
1	7986	3	51
1	10609	4	39
1	13448	5	55
1	15948	6	38
1	18594	7	57
1	21334	8	43
1	23896	9	39
1	26544	10	29
1	29116	11	17
1	31535	12	1
1	34303	13	13
1	36719	14	17
1	39296	15	1
1	41649	16	4
1	44287	17	15
1	46874	18	18
1	49611	19	16
1	52041	20	53
1	54486	21	35
1	57196	22	28
1	59823	23	41
1	62527	24	53
1	65337	25	45
1	67878	26	39
1	70324	27	53
1	73034	28	42
1	75810	29	38
1	78524	30	41
1	81029	31	18
1	83772	32	16
1	86344	33	29
1	88913	34	23
1	91406	35	56
1	93891	36	52
1	96507	37	44
1	98948	38	49
1	101581	39	40
1	104394	40	55
1	106927	41	49
1	109572	42	41
1	112180	43	37
1	114802	44	44
1	117365	45	42
1	119883	46	48
1	122394	47	53
1	125005	48	50
1	127765	49	33
1	130226	50	31
1	132793	51	26
1	135647	52	32
1	138336	53	20
1	140846	54	21
1	143553	55	25
1	146191	56	14
1	148728	57	13
1	151643	58	34
1	154186	59	29
1	156793	60	56
1	159100	61	54
1	161506	62	52
1	163852	63	42
1	166454	64	29
1	168960	65	51
1	171469	66	50
1	174162	67	51
1	176784	68	34
1	179268	69	18
1	181852	70	17
1	184523	71	37
1	186973	72	2
1	189579	73	0
1	192292	74	28
1	194774	75	25
1	197522	76	54
1	200155	77	51
1	202697	78	52
1	205311	79	51
1	207782	80	49
1	210325	81	56
1	212632	82	53
1	215227	83	35
1	217758	84	56
1	220094	85	50
1	222894	86	56
1	225376	87	57
1	228098	88	52
1	230723	89	49
1	233399	90	45
1	235960	91	28
1	238662	92	49
1	241330	93	45
1	244070	94	50
1	246513	95	43
1	249410	96	24
1	251861	97	40
1	254616	98	58
1	257354	99	45
1	260046	100	34
1	262568	101	25
1	265399	102	26
1	267931	103	24
1	270565	104	11
1	273284	105	14
1	275965	106	36
1	278624	107	27
1	281284	108	31
1	283650	109	44
1	286147	110	58
1	288475	111	50
1	290883	112	57
1	293476	113	53
1	296021	114	56
1	298591	115	29
1	301120	116	18
1	303901	117	3
1	306420	118	12
1	309033	119	53
1	311816	120	49
1	314423	121	57
1	316980	122	48
1	319633	123	51
1	322438	124	25
1	325044	125	33
1	327571	126	56
1	330068	127	46
1	332671	128	35
1	335348	129	49
1	337833	130	47
1	340369	131	19
1	342976	132	17
1	345350	133	8
1	348021	134	26
1	350674	135	21
1	353270	136	24
1	356002	137	24
1	358816	138	32
1	361487	139	46
1	363948	140	59
1	366664	141	40
1	369262	142	45
1	372001	143	48
1	374681	144	36
1	377358	145	26
1	379911	146	11
1	382643	147	11
1	385217	148	37
1	388058	149	56
1	390627	150	58
1	393125	151	38
1	395748	152	45
1	398207	153	56
1	400962	154	46
1	403692	155	40
1	406327	156	21
1	408705	157	27
1	411163	158	26
1	413698	159	41
1	416441	160	25
1	418981	161	21
1	421723	162	14
1	424238	163	4
1	426964	164	6
1	429217	165	9
1	431889	166	20
1	434522	167	24
1	437140	168	27
1	439763	169	12
1	442298	170	3
1	444869	171	9
1	447467	172	19
1	450103	173	16
1	452859	174	0
1	455576	175	24
1	458116	176	29
1	460778	177	27
1	463342	178	37
1	465846	179	37
1	468427	180	48
1	471215	181	57
1	473825	182	52
1	476298	183	49
1	478823	184	25
1	481540	185	25
1	484035	186	4
1	486704	187	27
1	489231	188	44
1	491948	189	46
1	494581	190	44
1	497120	191	48
1	499817	192	21
1	502460	193	41
1	505012	194	41
1	507527	195	35
1	510287	196	43
1	512673	197	37
1	514977	198	57
1	517653	199	49
1	520245	200	46
1	522901	201	45
1	525446	202	51
1	528177	203	43
1	530873	204	28
1	533442	205	11
1	536101	206	23
1	538842	207	0
1	541628	208	24
1	544189	209	34
1	546775	210	15
1	549372	211	23
1	551891	212	48
1	554467	213	51
1	557165	214	54
1	559479	215	47
1	561954	216	47
1	564482	217	47
1	566960	218	45
1	569584	219	38
1	572130	220	55
1	574841	221	47
1	577563	222	47
1	579984	223	41
1	582535	224	48
1	585010	225	59
1	587441	226	50
1	590108	227	58
1	592746	228	30
1	595407	229	48
1	597955	230	41
1	600357	231	32
1	603111	232	37
1	605640	233	33
1	608160	234	20
1	610908	235	22
1	613443	236	21
1	616172	237	14
1	618822	238	26
1	621429	239	20
1	624026	240	56
1	626654	241	44
1	629243	242	44
1	631665	243	34
1	634124	244	43
1	636786	245	45
1	639601	246	16
1	642359	247	18
1	645042	248	10
1	647788	249	10
1	650238	250	20
1	652849	251	19
1	655527	252	30
1	658168	253	35
1	660733	254	42
1	663128	255	50
1	665786	256	49
1	668506	257	47
1	671102	258	20
1	673664	259	32
1	676151	260	13
1	678727	261	50
1	681125	262	52
1	683706	263	36
1	686138	264	48
1	688980	265	36
1	691700	266	46
1	694332	267	39
1	696977	268	51
1	699549	269	51
1	701966	270	51
1	704488	271	31
1	707244	272	32
1	709869	273	25
1	712621	274	17
1	715070	275	38
1	717696	276	43
1	720255	277	43
1	722888	278	48
1	725307	279	53
1	727653	280	47
1	730050	281	57
1	732411	282	29
1	734947	283	46
1	737610	284	46
1	740088	285	54
1	742570	286	55
1	745125	287	51
1	747845	288	28
1	750408	289	35
1	752868	290	31
1	755700	291	13
1	758145	292	4
1	760682	293	10
1	763239	294	2
1	765676	295	6
1	768329	296	9
1	770949	297	13
1	773794	298	22
1	776618	299	53
1	779191	300	37
1	781846	301	23
1	784577	302	13
1	787387	303	6
1	789555	304	6
1	792223	305	17
1	794800	306	15
1	797409	307	28
1	800013	308	13
1	802760	309	15
1	805290	310	10
1	807789	311	6
1	810381	312	21
1	812970	313	41
1	815398	314	38
1	818141	315	27
1	820756	316	14
1	823002	317	28
1	825683	318	8
1	828134	319	35
1	830886	320	22
1	833408	321	9
1	835763	322	18
1	838599	323	19
1	841338	324	14
1	844107	325	27
1	846794	326	37
1	849297	327	57
1	851803	328	51
1	854491	329	56
1	856992	330	44
1	859259	331	52
1	861858	332	41
1	864519	333	53
1	867257	334	24
1	870008	335	30
1	872591	336	7
1	875153	337	19
1	877817	338	36
1	880444	339	10
1	882793	340	29
1	885608	341	38
1	888229	342	57
1	890634	343	45
1	893485	344	45
1	896102	345	41
1	898752	346	36
1	901439	347	49
1	903978	348	30
1	906525	349	27
1	909205	350	17
1	911794	351	35
1	914484	352	28
1	916967	353	25
1	919530	354	9
1	922285	355	5
1	924883	356	12
1	927632	357	23
1	930266	358	24
1	932619	359	26
1	935002	360	1
1	937360	361	9
1	939896	362	14
1	942214	363	12
1	944749	364	1
1	947331	365	28
1	950122	366	46
1	952696	367	56
1	955359	368	45
1	957732	369	56
1	960000	370	54
1	962408	371	44
1	964766	372	50
1	967377	373	53
1	969885	374	58
1	971932	375	59
1	974166	376	51
1	976529	377	47
1	979221	378	31
1	981853	379	49
1	984613	380	27
1	987143	381	30
1	989917	382	16
1	992612	383	12
1	995512	384	25
1	998136	385	34
1	1000674	386	23
1	1003310	387	25
1	1005833	388	36
1	1008680	389	45
1	1010999	390	57
1	1013800	391	51
1	1016487	392	37
1	1019092	393	51
1	1021598	394	45
1	1024210	395	37
1	1026789	396	40
1	1029167	397	27
1	1031819	398	46
1	1034353	399	47
1	1036936	400	35
1	1039502	401	37
1	1042103	402	35
1	1044747	403	30
1	1047304	404	35
1	1049934	405	36
1	1052757	406	41
1	1055320	407	27
1	1058019	408	45
1	1060708	409	49
1	1063339	410	56
1	1065907	411	41
1	1068359	412	22
1	1071054	413	31
1	1073440	414	30
1	1075997	415	17
1	1078492	416	3
1	1080916	417	13
1	1083361	418	2
1	1085773	419	2
1	1088351	420	43
1	1091199	421	24
1	1093686	422	10
1	1096161	423	4
1	1098667	424	29
1	1101256	425	24
1	1104128	426	14
1	1106810	427	23
1	1109340	428	11
1	1111853	429	30
1	1114671	430	43
1	1117302	431	30
1	1119983	432	24
1	1122542	433	51
1	1125217	434	37
1	1128011	435	48
1	1130627	436	50
1	1133228	437	37
1	1135904	438	25
1	1138865	439	34
1	1141269	440	13
1	1143745	441	21
1	1146355	442	18
1	1148923	443	9
1	1151504	444	30
1	1154329	445	11
1	1156306	446	0
1	1159032	447	6
1	1161419	448	12
1	1163596	449	6
1	1165965	450	3
1	1168210	451	7
1	1170875	452	28
1	1173456	453	11
1	1176169	454	29
1	1178731	455	40
1	1181264	456	53
1	1183820	457	47
1	1186350	458	33
1	1189021	459	44
1	1191516	460	50
1	1194188	461	38
1	1196708	462	58
1	1199045	463	54
1	1201625	464	49
1	1204061	465	46
1	1206789	466	44
1	1209403	467	37
1	1211994	468	33
1	1214739	469	25
1	1217622	470	45
1	1220342	471	41
1	1223013	472	35
1	1225633	473	3
1	1228050	474	26
1	1230846	475	9
1	1233596	476	21
1	1236278	477	17
1	1238658	478	7
1	1240992	479	9
1	1243582	480	8
1	1246217	481	31
1	1248849	482	30
1	1251670	483	21
1	1254365	484	18
1	1257099	485	7
1	1259686	486	44
1	1262053	487	59
1	1264351	488	51
1	1266860	489	48
1	1269412	490	49
1	1271758	491	55
1	1274415	492	21
1	1277327	493	40
1	1279644	494	48
1	1282050	495	56
1	1284508	496	40
1	1287199	497	48
1	1290123	498	59
1	1292481	499	50
1	1295138	500	53
1	1297711	501	56
1	1300061	502	47
1	1302678	503	46
1	1305327	504	28
1	1307906	505	31
1	1310655	506	51
1	1312996	507	49
1	1315500	508	37
1	1318185	509	32
1	1320734	510	32
1	1323471	511	38
1	1326090	512	14
1	1328546	513	22
1	1331063	514	17
1	1333901	515	11
1	1336520	516	8
1	1339141	517	8
1	1341925	518	1
1	1344583	519	4
1	1347293	520	16
1	1350106	521	18
1	1352371	522	53
1	1355200	523	49
1	1357909	524	59
1	1360314	525	42
1	1362799	526	21
1	1365357	527	25
1	1367916	528	4
1	1370511	529	7
1	1372998	530	19
1	1375567	531	56
1	1377867	532	47
1	1380391	533	58
1	1383094	534	44
1	1385719	535	37
1	1388513	536	41
1	1391324	537	51
1	1393608	538	52
1	1396295	539	40
1	1398900	540	55
1	1401354	541	52
1	1404050	542	49
1	1406692	543	41
1	1409410	544	35
1	1411948	545	46
1	1414666	546	23
1	1417421	547	37
1	1420007	548	42
1	1422679	549	34
1	1425053	550	49
1	1427469	551	44
1	1429604	552	55
1	1432238	553	54
1	1434653	554	57
1	1437036	555	52
1	1439516	556	32
1	1442203	557	55
1	1444675	558	49
1	1447201	559	49
1	1449818	560	50
1	1452511	561	41
1	1455060	562	41
1	1457827	563	46
1	1460467	564	35
1	1463024	565	44
1	1465520	566	39
1	1468180	567	58
1	1470482	568	56
1	1472827	569	45
1	1475311	570	53
1	1477856	571	39
1	1480549	572	41
1	1482975	573	48
1	1485490	574	50
1	1487918	575	45
1	1490311	576	54
1	1493022	577	47
1	1495870	578	47
1	1498677	579	39
1	1501327	580	44
1	1503802	581	46
1	1506563	582	46
1	1508926	583	18
1	1511871	584	28
1	1514497	585	20
1	1517113	586	17
1	1519719	587	16
1	1522178	588	2
1	1524871	589	36
1	1527515	590	40
1	1530227	591	43
1	1532807	592	48
1	1535538	593	49
1	1538143	594	49
1	1540655	595	29
1	1543305	596	26
1	1545868	597	27
1	1548472	598	6
1	1550956	599	21
1	1553331	600	2
1	1556077	601	24
1	1558863	602	13
1	1561454	603	21
1	1563980	604	0
1	1566743	605	5
1	1569231	606	9
1	1571830	607	12
1	1574150	608	17
1	1576705	609	16
1	1579305	610	17
1	1582098	611	11
1	1584813	612	31
1	1587339	613	58
1	1589460	614	53
1	1592198	615	54
1	1594657	616	55
1	1596828	617	51
1	1599223	618	56
1	1601691	619	28
1	1604255	620	51
1	1606966	621	55
1	1609485	622	45
1	1612004	623	56
1	1614764	624	58
1	1617331	625	58
1	1619990	626	10
1	1622860	627	10
1	1625333	628	0
1	1627987	629	21
1	1630522	630	22
1	1632914	631	7
1	1635633	632	22
1	1638240	633	26
1	1640925	634	26
1	1643438	635	19
1	1646065	636	10
1	1648581	637	37
1	1650874	638	59
1	1653311	639	52
1	1655632	640	58
1	1658295	641	46
1	1660673	642	52
1	1663156	643	58
1	1665680	644	58
1	1668145	645	55
1	1670684	646	30
1	1673619	647	28
1	1676247	648	38
1	1678839	649	59
1	1681345	650	48
1	1683830	651	57
1	1686083	652	47
1	1688385	653	54
1	1691140	654	49
1	1693643	655	53
1	1696280	656	55
1	1698633	657	58
1	1701034	658	53
1	1703577	659	27
1	1706104	660	9
1	1708456	661	3
1	1711122	662	22
1	1713830	663	54
1	1716314	664	42
1	1718622	665	57
1	1721253	666	47
1	1723671	667	56
1	1726444	668	40
1	1729120	669	57
1	1731765	670	48
1	1734395	671	53
1	1737098	672	32
1	1739779	673	26
1	1742621	674	22
1	1745269	675	10
1	1748082	676	20
1	1750548	677	20
1	1752912	678	22
1	1755201	679	14
1	1757710	680	9
1	1760326	681	49
1	1763052	682	54
1	1765619	683	39
1	1768209	684	31
1	1771131	685	29
1	1773644	686	59
1	1775966	687	51
1	1778544	688	48
1	1781178	689	50
1	1784000	690	47
1	1786672	691	52
1	1789381	692	33
1	1791841	693	49
1	1794399	694	56
1	1796554	695	36
1	1798956	696	45
1	1801499	697	29
1	1803713	698	1
1	1806044	699	15
1	1808252	700	0
1	1810499	701	1
1	1813178	702	31
1	1815785	703	42
1	1818394	704	13
1	1820960	705	17
1	1823703	706	32
1	1826480	707	48
1	1828801	708	28
1	1831491	709	54
1	1834057	710	52
1	1836593	711	26
1	1839100	712	22
1	1841683	713	19
1	1844282	714	46
1	1846855	715	53
1	1849454	716	38
1	1852115	717	28
1	1854607	718	20
1	1857186	719	38
1	1859613	720	51
1	1862179	721	56
1	1864648	722	55
1	1866882	723	43
1	1869348	724	33
1	1872152	725	39
1	1874895	726	39
1	1877508	727	57
1	1879993	728	51
1	1882505	729	52
1	1885083	730	39
1	1887800	731	38
1	1890284	732	39
1	1892890	733	45
1	1895800	734	42
1	1898435	735	53
1	1900819	736	40
1	1903543	737	45
1	1906136	738	55
1	1908723	739	39
1	1911322	740	53
1	1913860	741	51
1	1916258	742	37
1	1918924	743	21
1	1921538	744	46
1	1923888	745	37
1	1926459	746	40
1	1929041	747	43
1	1931413	748	19
1	1934014	749	24
1	1936762	750	48
1	1939236	751	34
1	1941852	752	18
1	1944395	753	20
1	1947068	754	10
1	1949435	755	30
1	1952128	756	44
1	1954684	757	38
1	1957476	758	25
1	1960157	759	22
1	1962710	760	8
1	1965344	761	29
1	1968052	762	25
1	1970798	763	15
1	1973141	764	24
1	1975773	765	16
1	1978297	766	0
[...]
2	9703740	3760	35
2	9706341	3761	23
2	9709139	3762	17
2	9711681	3763	1
2	9714234	3764	6
2	9716619	3765	3
2	9719037	3766	8
2	9721305	3767	25
2	9723872	3768	36
2	9726547	3769	21
2	9729213	3770	39
2	9731628	3771	53
2	9734214	3772	55
2	9736630	3773	57
2	9739023	3774	54
2	9741484	3775	54
2	9743866	3776	59
2	9746414	3777	32
2	9748714	3778	54
2	9751126	3779	41
2	9753943	3780	38
2	9756416	3781	50
2	9758759	3782	50
2	9761359	3783	54
2	9763728	3784	44
2	9766393	3785	20
2	9769197	3786	21
2	9772023	3787	0
2	9774479	3788	16
2	9776981	3789	11
2	9779284	3790	1
2	9781835	3791	12
2	9784483	3792	15
2	9787343	3793	1
2	9790058	3794	3
2	9792668	3795	15
2	9795445	3796	3
2	9798020	3797	8
2	9800511	3798	2
2	9803197	3799	4
2	9805889	3800	7
2	9808375	3801	4
2	9810790	3802	12
2	9813159	3803	1
2	9815787	3804	19
2	9818329	3805	40
2	9821023	3806	55
2	9823377	3807	55
2	9825895	3808	27
2	9828654	3809	40
2	9831348	3810	40
2	9834110	3811	44
2	9836958	3812	40
2	9839742	3813	23
2	9842100	3814	19
2	9844832	3815	6
2	9847512	3816	16
2	9850093	3817	21
2	9852827	3818	27
2	9855342	3819	24
2	9857989	3820	23
2	9860742	3821	27
2	9863518	3822	40
2	9866179	3823	13
2	9868627	3824	0
2	9871059	3825	0
2	9873747	3826	16
2	9876438	3827	17
2	9879215	3828	15
2	9881820	3829	5
2	9884146	3830	9
2	9886780	3831	6
2	9889296	3832	9
2	9891917	3833	9
2	9894478	3834	22
2	9897124	3835	0
2	9899460	3836	6
2	9902103	3837	13
2	9904817	3838	30
2	9907489	3839	49
2	9910082	3840	41
2	9912432	3841	55
2	9914746	3842	41
2	9917199	3843	48
2	9919769	3844	22
2	9922440	3845	8
2	9924924	3846	25
2	9927591	3847	39
2	9930134	3848	28
2	9932738	3849	43
2	9935037	3850	46
2	9937688	3851	43
2	9940110	3852	28
2	9942784	3853	41
2	9945495	3854	43
2	9948065	3855	25
2	9950921	3856	1
2	9953335	3857	0
2	9955848	3858	3
2	9958667	3859	10
2	9961222	3860	30
2	9963606	3861	31
2	9966368	3862	6
2	9968865	3863	4
2	9971461	3864	8
2	9973956	3865	7
2	9976462	3866	16
2	9979070	3867	49
2	9981738	3868	48
2	9984555	3869	38
2	9987176	3870	24
2	9989879	3871	44
2	9992580	3872	28
2	9995123	3873	15
2	9997554	3874	18
2	9999978	3875	3
2	10002326	3876	0
2	10005047	3877	11
2	10007875	3878	2
2	10010599	3879	6
2	10013512	3880	18
2	10016403	3881	12
2	10019025	3882	6
2	10021648	3883	0
2	10024183	3884	9
2	10026860	3885	32
2	10029335	3886	2
2	10032096	3887	12
2	10034625	3888	8
2	10037182	3889	4
2	10039825	3890	20
2	10042394	3891	5
2	10044969	3892	9
2	10047461	3893	4
2	10049914	3894	24
2	10052465	3895	26
2	10055117	3896	22
2	10057748	3897	12
2	10060148	3898	10
2	10062747	3899	11
2	10065445	3900	5
2	10068027	3901	11
2	10070833	3902	19
2	10073259	3903	11
2	10075776	3904	13
2	10078505	3905	21
2	10081079	3906	26
2	10083588	3907	26
2	10086208	3908	39
2	10088770	3909	38
2	10091340	3910	19
2	10094119	3911	18
2	10096905	3912	15
2	10099718	3913	23
2	10102241	3914	50
2	10104595	3915	51
2	10106945	3916	32
2	10109449	3917	49
2	10112115	3918	44
2	10114641	3919	27
2	10117207	3920	27
2	10119665	3921	20
2	10122293	3922	3
2	10125166	3923	17
2	10127731	3924	56
2	10130433	3925	29
2	10133032	3926	15
2	10135610	3927	3
2	10138143	3928	20
2	10140816	3929	24
2	10143497	3930	37
2	10146190	3931	49
2	10148806	3932	33
2	10151323	3933	35
2	10153886	3934	11
2	10156489	3935	23
2	10159296	3936	20
2	10162164	3937	22
2	10164866	3938	34
2	10167392	3939	19
2	10170011	3940	6
2	10172724	3941	31
2	10175328	3942	12
2	10177746	3943	6
2	10180010	3944	1
2	10182386	3945	10
2	10184627	3946	18
2	10187147	3947	16
2	10189721	3948	28
2	10192339	3949	36
2	10194850	3950	28
2	10197562	3951	38
2	10200151	3952	38
2	10202580	3953	9
2	10205346	3954	37
2	10207865	3955	57
2	10210303	3956	48
2	10212885	3957	35
2	10215552	3958	38
2	10218449	3959	13
2	10220972	3960	15
2	10223715	3961	10
2	10226582	3962	30
2	10229388	3963	31
2	10232094	3964	39
2	10234448	3965	39
2	10237038	3966	29
2	10239858	3967	20
2	10242340	3968	18
2	10244997	3969	4
2	10247493	3970	17
2	10250119	3971	20
2	10252699	3972	4
2	10255381	3973	0
2	10257777	3974	16
2	10260440	3975	20
2	10263040	3976	9
2	10265299	3977	0
2	10267994	3978	6
2	10270299	3979	0
2	10272892	3980	0
2	10275317	3981	12
2	10277896	3982	30
2	10280416	3983	26
2	10282926	3984	34
2	10285674	3985	36
2	10288231	3986	36
2	10290657	3987	29
2	10293244	3988	31
2	10295841	3989	0
2	10298439	3990	2
2	10301100	3991	7
2	10303813	3992	0
2	10306023	3993	16
2	10308404	3994	26
2	10310907	3995	46
2	10313247	3996	46
2	10315683	3997	32
2	10318329	3998	33
2	10320842	3999	34
2	10323620	4000	20
3	13446	5	1039
3	26542	10	1128
3	39294	15	990
3	52039	20	1039
3	65335	25	1128
3	78522	30	1085
3	91404	35	1044
3	104392	40	1050
3	117363	45	1069
3	130224	50	1019
3	143551	55	1119
3	156791	60	1046
3	168958	65	987
3	181850	70	1008
3	194772	75	1048
3	207780	80	1070
3	220092	85	982
3	233397	90	1117
3	246511	95	1090
3	260044	100	1131
3	273282	105	1078
3	286145	110	1017
3	298589	115	940
3	311814	120	1127
3	325042	125	996
3	337831	130	975
3	350672	135	1039
3	363946	140	1106
3	377356	145	1066
3	390625	150	1103
3	403690	155	1097
3	416439	160	1081
3	429215	165	1038
3	442296	170	1059
3	455574	175	1110
3	468425	180	1035
3	481538	185	1123
3	494579	190	1079
3	507525	195	1060
3	520243	200	1040
3	533440	205	1069
3	546773	210	1105
3	559477	215	1020
3	572128	220	985
3	585008	225	1016
3	597953	230	1051
3	610906	235	1055
3	624024	240	1068
3	636784	245	990
3	650236	250	1098
3	663126	255	1038
3	676149	260	1059
3	688978	265	1043
3	701964	270	1036
3	715068	275	1034
3	727651	280	1033
3	740086	285	981
3	752866	290	1026
3	765674	295	1106
3	779189	300	1125
3	792221	305	1100
3	805288	310	1029
3	818139	315	1083
3	830884	320	1021
3	844105	325	1065
3	856990	330	1043
3	870006	335	1064
3	882791	340	1045
3	896100	345	1093
3	909203	350	1031
3	922283	355	1056
3	935000	360	1055
3	947329	365	1015
3	959998	370	997
3	971930	375	974
3	984611	380	1035
3	998134	385	1131
3	1010997	390	995
3	1024208	395	1081
3	1036934	400	1022
3	1049932	405	1060
3	1063337	410	1121
3	1075995	415	1012
3	1088349	420	1012
3	1101254	425	1023
3	1114669	430	1057
3	1128009	435	1052
3	1141267	440	1110
3	1154327	445	1082
3	1165963	450	910
3	1178729	455	1008
3	1191514	460	1069
3	1204059	465	985
3	1217620	470	1153
3	1230844	475	1102
3	1243580	480	1028
3	1257097	485	1121
3	1269410	490	981
3	1282048	495	984
3	1295136	500	1126
3	1307904	505	1012
3	1320732	510	986
3	1333899	515	1097
3	1347291	520	1122
3	1360312	525	1063
3	1372996	530	970
3	1385717	535	1029
3	1398898	540	1061
3	1411946	545	1078
3	1425051	550	1045
3	1437034	555	951
3	1449816	560	996
3	1463022	565	1094
3	1475309	570	1005
3	1487916	575	1029
3	1501325	580	1163
3	1514495	585	1092
3	1527513	590	1016
3	1540653	595	1056
3	1553329	600	1002
3	1566741	605	1110
3	1579303	610	1002
3	1592196	615	1061
3	1604253	620	995
3	1617329	625	1076
3	1630520	630	1079
3	1643436	635	1030
3	1655630	640	984
3	1668143	645	969
3	1681343	650	1054
3	1693641	655	934
3	1706102	660	1007
3	1718620	665	958
3	1731763	670	1117
3	1745267	675	1130
3	1757708	680	995
3	1771129	685	1091
3	1783998	690	1065
3	1796552	695	992
3	1808250	700	904
3	1820958	705	1058
3	1834055	710	1069
3	1846853	715	1008
3	1859611	720	1006
3	1872150	725	1011
3	1885081	730	1057
3	1898433	735	1108
3	1911320	740	1033
3	1923886	745	996
3	1936760	750	1054
3	1949433	755	1009
3	1962708	760	1067
3	1975771	765	1055
3	1988651	770	1018
3	2001565	775	1064
3	2015134	780	1119
3	2028555	785	1093
3	2040846	790	979
3	2053706	795	1028
3	2065948	800	962
3	2079256	805	1116
3	2092423	810	1051
3	2105398	815	1059
3	2118812	820	1098
3	2131720	825	1068
3	2144456	830	996
3	2157777	835	1033
3	2170705	840	1046
3	2183880	845	1097
3	2197068	850	1122
3	2209460	855	1006
3	2222188	860	1036
3	2235362	865	1066
3	2248263	870	1079
3	2261754	875	1089
3	2274491	880	1051
3	2287141	885	1004
3	2299628	890	987
3	2312241	895	1009
3	2324975	900	1060
3	2338426	905	1055
3	2351496	910	1092
3	2364262	915	976
3	2377227	920	999
3	2390783	925	1118
3	2403805	930	1100
3	2417036	935	1109
3	2429718	940	1008
3	2442189	945	989
3	2455246	950	1059
3	2468608	955	1088
3	2481836	960	1030
3	2494680	965	1020
3	2507387	970	1043
3	2520876	975	1101
3	2533744	980	1036
3	2546486	985	1012
3	2558891	990	957
3	2571804	995	1043
3	2585468	1000	1152
3	2598604	1005	1076
3	2611224	1010	1028
3	2623592	1015	962
3	2636489	1020	1063
3	2649312	1025	1087
3	2662220	1030	1026
3	2675361	1035	1091
3	2688304	1040	1061
3	2701372	1045	1080
3	2714168	1050	1044
3	2726873	1055	1085
3	2739847	1060	1066
3	2752612	1065	1059
3	2765305	1070	1013
3	2778084	1075	1027
3	2791326	1080	1048
3	2804561	1085	1091
3	2816882	1090	959
3	2829493	1095	1029
3	2841996	1100	1045
3	2855209	1105	1127
3	2867849	1110	986
3	2880091	1115	964
3	2893502	1120	1039
3	2906802	1125	1082
3	2919617	1130	1029
3	2932845	1135	1056
3	2945578	1140	1045
3	2958917	1145	1083
3	2971745	1150	1028
3	2984730	1155	1041
3	2997384	1160	1006
3	3010136	1165	1012
3	3023056	1170	1024
3	3036024	1175	1062
3	3049661	1180	1147
3	3062334	1185	989
3	3075507	1190	1073
3	3088463	1195	1044
3	3101537	1200	1038
3	3114345	1205	1052
3	3127088	1210	1053
3	3140343	1215	1115
3	3152820	1220	1029
3	3165331	1225	1021
3	3177775	1230	968
3	3190537	1235	1014
3	3203343	1240	1068
3	3216718	1245	1079
3	3229253	1250	975
3	3242656	1255	1127
3	3255197	1260	969
3	3268341	1265	1104
3	3281090	1270	1033
3	3293246	1275	928
3	3305894	1280	1032
3	3319175	1285	1079
3	3331352	1290	943
3	3344095	1295	1017
3	3356235	1300	938
3	3368465	1305	926
3	3380506	1310	933
3	3392842	1315	1018
3	3405560	1320	1048
3	3418777	1325	1117
3	3431948	1330	1071
3	3444605	1335	1023
3	3457662	1340	1091
3	3470215	1345	999
3	3483382	1350	1061
3	3496287	1355	1099
3	3508368	1360	991
3	3521242	1365	1042
3	3534238	1370	1100
3	3547843	1375	1135
3	3560912	1380	1059
3	3573592	1385	1004
3	3587048	1390	1126
3	3600226	1395	1042
3	3613016	1400	1064
3	3625955	1405	1053
3	3638439	1410	984
3	3651203	1415	1030
3	3664314	1420	1095
3	3676807	1425	1025
3	3689599	1430	1044
3	3702992	1435	1129
3	3715569	1440	1009
3	3728084	1445	997
3	3740831	1450	1003
3	3753789	1455	1080
3	3766553	1460	978
3	3779145	1465	1008
3	3792103	1470	1060
3	3805860	1475	1165
3	3818301	1480	999
3	3830681	1485	970
3	3843543	1490	980
3	3856957	1495	1102
3	3870048	1500	1031
3	3882743	1505	1019
3	3895900	1510	1063
3	3909453	1515	1119
3	3923268	1520	1089
3	3935813	1525	1007
3	3948653	1530	1068
3	3961631	1535	1050
3	3974616	1540	1067
3	3987919	1545	1113
3	4000916	1550	1101
3	4013072	1555	944
3	4026469	1560	1133
3	4039429	1565	1076
3	4051132	1570	923
3	4063863	1575	1023
3	4076914	1580	1079
3	4089360	1585	972
3	4101719	1590	979
3	4114100	1595	941
3	4126894	1600	1038
3	4140243	1605	1079
3	4153602	1610	1105
3	4166773	1615	1105
3	4180015	1620	1070
3	4192399	1625	970
3	4204808	1630	981
3	4218328	1635	1052
3	4231058	1640	1056
3	4244035	1645	1043
3	4257005	1650	1054
3	4270110	1655	1117
3	4283401	1660	1077
3	4295826	1665	997
3	4308730	1670	1026
3	4321845	1675	1071
3	4334597	1680	1038
3	4347832	1685	1117
3	4360684	1690	1104
3	4373383	1695	1029
3	4386356	1700	1031
3	4399001	1705	1023
3	4412382	1710	1071
3	4425294	1715	1034
3	4438142	1720	1052
3	4451232	1725	1062
3	4463981	1730	1013
3	4477006	1735	1051
3	4489325	1740	1023
3	4502943	1745	1142
3	4516457	1750	1082
3	4529229	1755	1042
3	4542694	1760	1101
3	4555275	1765	965
3	4568197	1770	1044
3	4581341	1775	994
3	4593844	1780	1019
3	4606635	1785	1089
3	4619802	1790	1135
3	4632925	1795	1051
3	4646092	1800	1071
3	4659518	1805	1074
3	4672845	1810	1085
3	4685905	1815	1096
3	4699112	1820	1107
3	4711239	1825	971
3	4723723	1830	1034
3	4737022	1835	1083
3	4750314	1840	1090
3	4763202	1845	1020
3	4776182	1850	1108
3	4788965	1855	1051
3	4802372	1860	1093
3	4815551	1865	1055
3	4828423	1870	994
3	4841559	1875	1084
3	4854271	1880	1020
3	4867197	1885	1064
3	4880485	1890	1046
3	4893216	1895	1053
3	4906149	1900	1043
3	4918057	1905	1004
3	4930656	1910	1025
3	4943397	1915	993
3	4956478	1920	1057
3	4968889	1925	993
3	4981706	1930	1009
3	4995023	1935	1165
3	5007828	1940	1033
3	5020065	1945	979
3	5033569	1950	1138
3	5046718	1955	1079
3	5059429	1960	1015
3	5073154	1965	1135
3	5086014	1970	1052
3	5098697	1975	1033
3	5111824	1980	1055
3	5124852	1985	1026
3	5137949	1990	1053
3	5150202	1995	989
3	5162695	2000	937
3	5175317	2005	1002
3	5188127	2010	1022
3	5200633	2015	1026
3	5213702	2020	1043
3	5227244	2025	1136
3	5239521	2030	969
3	5252575	2035	1056
3	5265125	2040	1002
3	5278335	2045	1088
3	5291535	2050	1086
3	5304546	2055	1097
3	5317311	2060	1033
3	5330376	2065	1109
3	5343430	2070	1050
3	5355938	2075	1018
3	5369096	2080	1082
3	5381761	2085	1047
3	5394922	2090	1047
3	5407926	2095	1052
3	5420928	2100	1052
3	5434430	2105	1110
3	5447266	2110	1052
3	5459813	2115	995
3	5473178	2120	1091
3	5485662	2125	982
3	5498125	2130	1031
3	5511323	2135	1070
3	5524407	2140	1072
3	5537249	2145	986
3	5549873	2150	980
3	5563586	2155	1127
3	5575889	2160	951
3	5589393	2165	1104
3	5602520	2170	1051
3	5615079	2175	981
3	5627325	2180	982
3	5640505	2185	1090
3	5653961	2190	1116
3	5666916	2195	1027
3	5679212	2200	926
3	5691469	2205	1025
3	5704587	2210	1044
3	5717494	2215	1067
3	5729820	2220	1054
3	5742475	2225	1023
3	5755458	2230	1023
3	5768854	2235	1120
3	5781751	2240	1027
3	5794668	2245	1007
3	5807626	2250	1036
3	5820479	2255	1039
3	5833231	2260	1050
3	5846276	2265	1099
3	5859433	2270	1067
3	5872536	2275	1049
3	5886060	2280	1208
3	5899568	2285	1070
3	5912333	2290	1053
3	5924991	2295	992
3	5937267	2300	984
3	5949862	2305	1035
3	5962712	2310	1058
3	5975189	2315	963
3	5988082	2320	1027
3	6000987	2325	1075
3	6013868	2330	1043
3	6027163	2335	1097
3	6040151	2340	1032
3	6053099	2345	1050
3	6066043	2350	1074
3	6079705	2355	1160
3	6092562	2360	1021
3	6105283	2365	1055
3	6117716	2370	937
3	6130514	2375	1020
3	6143447	2380	1051
3	6155782	2385	985
3	6168427	2390	997
3	6181493	2395	1082
3	6194349	2400	1102
3	6207925	2405	1116
3	6221189	2410	1048
3	6233972	2415	1013
3	6246693	2420	997
3	6259510	2425	981
3	6273100	2430	1154
3	6285576	2435	1010
3	6297933	2440	957
3	6311030	2445	1075
3	6324041	2450	1057
3	6337456	2455	1093
3	6350613	2460	1117
3	6363963	2465	1122
3	6377369	2470	1068
3	6390015	2475	1022
3	6403083	2480	1076
3	6416013	2485	1042
3	6429227	2490	1106
3	6442105	2495	1070
3	6454801	2500	1004
3	6467469	2505	1032
3	6480488	2510	1037
3	6493433	2515	1047
3	6505873	2520	1020
3	6518854	2525	1011
3	6531610	2530	1000
3	6544777	2535	1089
3	6557322	2540	991
3	6570423	2545	1083
3	6583937	2550	1106
3	6596967	2555	1042
3	6610287	2560	1100
3	6623199	2565	1056
3	6635879	2570	1012
3	6649043	2575	1048
3	6661533	2580	976
3	6674425	2585	1034
3	6686920	2590	989
3	6699448	2595	992
3	6712789	2600	1097
3	6724901	2605	954
3	6737630	2610	1071
3	6750376	2615	978
3	6763822	2620	1062
3	6776736	2625	1024
3	6789284	2630	1022
3	6802068	2635	1024
3	6814754	2640	1000
3	6828270	2645	1104
3	6841334	2650	1064
3	6854588	2655	1116
3	6868066	2660	1104
3	6881087	2665	1053
3	6894195	2670	1094
3	6906914	2675	1015
3	6919676	2680	1040
3	6932002	2685	980
3	6944877	2690	1021
3	6957809	2695	1116
3	6970286	2700	1021
3	6982436	2705	944
3	6994895	2710	1015
3	7007822	2715	1015
3	7020804	2720	1074
3	7033163	2725	1029
3	7046554	2730	1093
3	7059531	2735	1015
3	7072608	2740	1055
3	7085539	2745	1037
3	7098401	2750	1072
3	7110781	2755	990
3	7123515	2760	1032
3	7136803	2765	1144
3	7150131	2770	1098
3	7163789	2775	1168
3	7176768	2780	1089
3	7189501	2785	1045
3	7202631	2790	1058
3	7215491	2795	1098
3	7228422	2800	1059
3	7241060	2805	1024
3	7254473	2810	1085
3	7267121	2815	1026
3	7280114	2820	1047
3	7293020	2825	1024
3	7305996	2830	1084
3	7318584	2835	982
3	7331665	2840	1089
3	7343721	2845	956
3	7357279	2850	1066
3	7370005	2855	1010
3	7382587	2860	1040
3	7395528	2865	1135
3	7408452	2870	1018
3	7421490	2875	1026
3	7434242	2880	1046
3	7447094	2885	1054
3	7459840	2890	1050
3	7472474	2895	1026
3	7485618	2900	1028
3	7498946	2905	1130
3	7512080	2910	1056
3	7525365	2915	1095
3	7538465	2920	1100
3	7551914	2925	1109
3	7564856	2930	1028
3	7578291	2935	1121
3	7591151	2940	1030
3	7604289	2945	1064
3	7617092	2950	1029
3	7630028	2955	1044
3	7642877	2960	1071
3	7655794	2965	1027
3	7667911	2970	969
3	7680952	2975	1055
3	7693844	2980	1060
3	7706951	2985	1049
3	7719660	2990	997
3	7733135	2995	1127
3	7746322	3000	1115
3	7759281	3005	1019
3	7771991	3010	1034
3	7784215	3015	936
3	7797411	3020	1086
3	7810624	3025	1069
3	7823648	3030	1036
3	7836591	3035	1037
3	7849615	3040	1062
3	7862493	3045	1048
3	7875575	3050	1096
3	7888007	3055	958
3	7900834	3060	1067
3	7913868	3065	1050
3	7926759	3070	1075
3	7940076	3075	1093
3	7953123	3080	1013
3	7966087	3085	1044
3	7978998	3090	999
3	7991685	3095	1067
3	8004334	3100	1041
3	8017735	3105	1095
3	8030380	3110	959
3	8042641	3115	949
3	8055328	3120	1001
3	8068126	3125	1046
3	8080364	3130	926
3	8093821	3135	1129
3	8106280	3140	999
3	8119463	3145	1037
3	8132583	3150	1060
3	8145635	3155	1046
3	8158582	3160	1051
3	8171736	3165	1054
3	8184384	3170	1000
3	8197213	3175	1065
3	8209109	3180	936
3	8222059	3185	1064
3	8235118	3190	1111
3	8248496	3195	1104
3	8261406	3200	1012
3	8274096	3205	1040
3	8287236	3210	1076
3	8299416	3215	968
3	8312249	3220	999
3	8325040	3225	1009
3	8337861	3230	1055
3	8350864	3235	1007
3	8363676	3240	1046
3	8376054	3245	986
3	8389291	3250	1033
3	8401920	3255	1001
3	8414776	3260	998
3	8427671	3265	1037
3	8440760	3270	1079
3	8454464	3275	1162
3	8467309	3280	1011
3	8479637	3285	962
3	8493021	3290	1128
3	8506170	3295	1083
3	8519093	3300	1063
3	8532325	3305	1028
3	8545463	3310	1074
3	8558055	3315	1000
3	8571019	3320	1070
3	8584077	3325	1048
3	8597151	3330	1058
3	8609498	3335	969
3	8622435	3340	1057
3	8635673	3345	1068
3	8648418	3350	1051
3	8660800	3355	1004
3	8673665	3360	1015
3	8686835	3365	1092
3	8699570	3370	1023
3	8712579	3375	1069
3	8725077	3380	966
3	8737153	3385	932
3	8750455	3390	1120
3	8763141	3395	1022
3	8775872	3400	1021
3	8788540	3405	1018
3	8801686	3410	1082
3	8814760	3415	1046
3	8827309	3420	1027
3	8840661	3425	1110
3	8853573	3430	1056
3	8866611	3435	1032
3	8879306	3440	1057
3	8892105	3445	1065
3	8904848	3450	979
3	8917634	3455	1058
3	8930049	3460	979
3	8943134	3465	1095
3	8955613	3470	975
3	8968034	3475	1003
3	8980720	3480	1018
3	8993153	3485	1023
3	9006080	3490	1055
3	9019055	3495	1013
3	9031129	3500	924
3	9043749	3505	1024
3	9056385	3510	1010
3	9068881	3515	1004
3	9081589	3520	1032
3	9094599	3525	1046
3	9107657	3530	1062
3	9120704	3535	1081
3	9133354	3540	1072
3	9146636	3545	1098
3	9159797	3550	1081
3	9172860	3555	1059
3	9185307	3560	1033
3	9198145	3565	1044
3	9211531	3570	1054
3	9224565	3575	1066
3	9237473	3580	1090
3	9250456	3585	1037
3	9263584	3590	1088
3	9276696	3595	1010
3	9289702	3600	1034
3	9302306	3605	1012
3	9315290	3610	1072
3	9327904	3615	1018
3	9340984	3620	1056
3	9354064	3625	1032
3	9367282	3630	1102
3	9380320	3635	1054
3	9393518	3640	1102
3	9405564	3645	978
3	9418245	3650	1009
3	9430812	3655	947
3	9444213	3660	1053
3	9457095	3665	1080
3	9469420	3670	1001
3	9482359	3675	1059
3	9494683	3680	972
3	9507485	3685	1054
3	9520694	3690	1119
3	9533670	3695	1064
3	9547022	3700	1112
3	9560287	3705	1083
3	9573362	3710	1043
3	9586780	3715	1108
3	9599628	3720	1010
3	9612653	3725	1015
3	9625442	3730	967
3	9638696	3735	1114
3	9652030	3740	1106
3	9665070	3745	1086
3	9677688	3750	1014
3	9690400	3755	988
3	9703737	3760	1105
3	9716616	3765	1003
3	9729210	3770	1004
3	9741481	3775	991
3	9753940	3780	983
3	9766390	3785	1004
3	9779281	3790	1019
3	9792665	3795	1128
3	9805886	3800	1073
3	9818326	3805	1000
3	9831345	3810	1057
3	9844829	3815	1118
3	9857986	3820	1071
3	9871056	3825	1068
3	9884143	3830	1087
3	9897121	3835	1050
3	9910079	3840	1074
3	9922437	3845	958
3	9935034	3850	1007
3	9948062	3855	1038
3	9961219	3860	1091
3	9973953	3865	1036
3	9987173	3870	1078
3	9999975	3875	1048
3	10013509	3880	1198
3	10026857	3885	1158
3	10039822	3890	1109
3	10052462	3895	1022
3	10065442	3900	1080
3	10078502	3905	1084
3	10091337	3910	1011
3	10104592	3915	1121
3	10117204	3920	1038
3	10130430	3925	1038
3	10143494	3930	1056
3	10156486	3935	1052
3	10170008	3940	1140
3	10182383	3945	1005
3	10194847	3950	1002
3	10207862	3955	1049
3	10220969	3960	1125
3	10234445	3965	1132
3	10247490	3970	1015
3	10260437	3975	1033
3	10272889	3980	998
3	10285671	3985	992
3	10298436	3990	1063
3	10310904	3995	1026
3	10323617	4000	1035

